500

Au 0.0 0.0 0.0
Au 0.0 1.3 1.3
Au 1.3 0.0 1.3
Au 1.3 1.3 0.0
Au 2.6 0.0 0.0
Au 2.6 1.3 1.3
Au 3.9000000000000004 0.0 1.3
Au 3.9000000000000004 1.3 0.0
Au 5.2 0.0 0.0
Au 5.2 1.3 1.3
Au 6.5 0.0 1.3
Au 6.5 1.3 0.0
Au 7.800000000000001 0.0 0.0
Au 7.800000000000001 1.3 1.3
Au 9.100000000000001 0.0 1.3
Au 9.100000000000001 1.3 0.0
Au 10.4 0.0 0.0
Au 10.4 1.3 1.3
Au 11.700000000000001 0.0 1.3
Au 11.700000000000001 1.3 0.0
Au 0.0 2.6 0.0
Au 0.0 3.9000000000000004 1.3
Au 1.3 2.6 1.3
Au 1.3 3.9000000000000004 0.0
Au 2.6 2.6 0.0
Au 2.6 3.9000000000000004 1.3
Au 3.9000000000000004 2.6 1.3
Au 3.9000000000000004 3.9000000000000004 0.0
Au 5.2 2.6 0.0
Au 5.2 3.9000000000000004 1.3
Au 6.5 2.6 1.3
Au 6.5 3.9000000000000004 0.0
Au 7.800000000000001 2.6 0.0
Au 7.800000000000001 3.9000000000000004 1.3
Au 9.100000000000001 2.6 1.3
Au 9.100000000000001 3.9000000000000004 0.0
Au 10.4 2.6 0.0
Au 10.4 3.9000000000000004 1.3
Au 11.700000000000001 2.6 1.3
Au 11.700000000000001 3.9000000000000004 0.0
Au 0.0 5.2 0.0
Au 0.0 6.5 1.3
Au 1.3 5.2 1.3
Au 1.3 6.5 0.0
Au 2.6 5.2 0.0
Au 2.6 6.5 1.3
Au 3.9000000000000004 5.2 1.3
Au 3.9000000000000004 6.5 0.0
Au 5.2 5.2 0.0
Au 5.2 6.5 1.3
Au 6.5 5.2 1.3
Au 6.5 6.5 0.0
Au 7.800000000000001 5.2 0.0
Au 7.800000000000001 6.5 1.3
Au 9.100000000000001 5.2 1.3
Au 9.100000000000001 6.5 0.0
Au 10.4 5.2 0.0
Au 10.4 6.5 1.3
Au 11.700000000000001 5.2 1.3
Au 11.700000000000001 6.5 0.0
Au 0.0 7.800000000000001 0.0
Au 0.0 9.100000000000001 1.3
Au 1.3 7.800000000000001 1.3
Au 1.3 9.100000000000001 0.0
Au 2.6 7.800000000000001 0.0
Au 2.6 9.100000000000001 1.3
Au 3.9000000000000004 7.800000000000001 1.3
Au 3.9000000000000004 9.100000000000001 0.0
Au 5.2 7.800000000000001 0.0
Au 5.2 9.100000000000001 1.3
Au 6.5 7.800000000000001 1.3
Au 6.5 9.100000000000001 0.0
Au 7.800000000000001 7.800000000000001 0.0
Au 7.800000000000001 9.100000000000001 1.3
Au 9.100000000000001 7.800000000000001 1.3
Au 9.100000000000001 9.100000000000001 0.0
Au 10.4 7.800000000000001 0.0
Au 10.4 9.100000000000001 1.3
Au 11.700000000000001 7.800000000000001 1.3
Au 11.700000000000001 9.100000000000001 0.0
Au 0.0 10.4 0.0
Au 0.0 11.700000000000001 1.3
Au 1.3 10.4 1.3
Au 1.3 11.700000000000001 0.0
Au 2.6 10.4 0.0
Au 2.6 11.700000000000001 1.3
Au 3.9000000000000004 10.4 1.3
Au 3.9000000000000004 11.700000000000001 0.0
Au 5.2 10.4 0.0
Au 5.2 11.700000000000001 1.3
Au 6.5 10.4 1.3
Au 6.5 11.700000000000001 0.0
Au 7.800000000000001 10.4 0.0
Au 7.800000000000001 11.700000000000001 1.3
Au 9.100000000000001 10.4 1.3
Au 9.100000000000001 11.700000000000001 0.0
Au 10.4 10.4 0.0
Au 10.4 11.700000000000001 1.3
Au 11.700000000000001 10.4 1.3
Au 11.700000000000001 11.700000000000001 0.0
Au 0.0 0.0 2.6
Au 0.0 1.3 3.9000000000000004
Au 1.3 0.0 3.9000000000000004
Au 1.3 1.3 2.6
Au 2.6 0.0 2.6
Au 2.6 1.3 3.9000000000000004
Au 3.9000000000000004 0.0 3.9000000000000004
Au 3.9000000000000004 1.3 2.6
Au 5.2 0.0 2.6
Au 5.2 1.3 3.9000000000000004
Au 6.5 0.0 3.9000000000000004
Au 6.5 1.3 2.6
Au 7.800000000000001 0.0 2.6
Au 7.800000000000001 1.3 3.9000000000000004
Au 9.100000000000001 0.0 3.9000000000000004
Au 9.100000000000001 1.3 2.6
Au 10.4 0.0 2.6
Au 10.4 1.3 3.9000000000000004
Au 11.700000000000001 0.0 3.9000000000000004
Au 11.700000000000001 1.3 2.6
Au 0.0 2.6 2.6
Au 0.0 3.9000000000000004 3.9000000000000004
Au 1.3 2.6 3.9000000000000004
Au 1.3 3.9000000000000004 2.6
Au 2.6 2.6 2.6
Au 2.6 3.9000000000000004 3.9000000000000004
Au 3.9000000000000004 2.6 3.9000000000000004
Au 3.9000000000000004 3.9000000000000004 2.6
Au 5.2 2.6 2.6
Au 5.2 3.9000000000000004 3.9000000000000004
Au 6.5 2.6 3.9000000000000004
Au 6.5 3.9000000000000004 2.6
Au 7.800000000000001 2.6 2.6
Au 7.800000000000001 3.9000000000000004 3.9000000000000004
Au 9.100000000000001 2.6 3.9000000000000004
Au 9.100000000000001 3.9000000000000004 2.6
Au 10.4 2.6 2.6
Au 10.4 3.9000000000000004 3.9000000000000004
Au 11.700000000000001 2.6 3.9000000000000004
Au 11.700000000000001 3.9000000000000004 2.6
Au 0.0 5.2 2.6
Au 0.0 6.5 3.9000000000000004
Au 1.3 5.2 3.9000000000000004
Au 1.3 6.5 2.6
Au 2.6 5.2 2.6
Au 2.6 6.5 3.9000000000000004
Au 3.9000000000000004 5.2 3.9000000000000004
Au 3.9000000000000004 6.5 2.6
Au 5.2 5.2 2.6
Au 5.2 6.5 3.9000000000000004
Au 6.5 5.2 3.9000000000000004
Au 6.5 6.5 2.6
Au 7.800000000000001 5.2 2.6
Au 7.800000000000001 6.5 3.9000000000000004
Au 9.100000000000001 5.2 3.9000000000000004
Au 9.100000000000001 6.5 2.6
Au 10.4 5.2 2.6
Au 10.4 6.5 3.9000000000000004
Au 11.700000000000001 5.2 3.9000000000000004
Au 11.700000000000001 6.5 2.6
Au 0.0 7.800000000000001 2.6
Au 0.0 9.100000000000001 3.9000000000000004
Au 1.3 7.800000000000001 3.9000000000000004
Au 1.3 9.100000000000001 2.6
Au 2.6 7.800000000000001 2.6
Au 2.6 9.100000000000001 3.9000000000000004
Au 3.9000000000000004 7.800000000000001 3.9000000000000004
Au 3.9000000000000004 9.100000000000001 2.6
Au 5.2 7.800000000000001 2.6
Au 5.2 9.100000000000001 3.9000000000000004
Au 6.5 7.800000000000001 3.9000000000000004
Au 6.5 9.100000000000001 2.6
Au 7.800000000000001 7.800000000000001 2.6
Au 7.800000000000001 9.100000000000001 3.9000000000000004
Au 9.100000000000001 7.800000000000001 3.9000000000000004
Au 9.100000000000001 9.100000000000001 2.6
Au 10.4 7.800000000000001 2.6
Au 10.4 9.100000000000001 3.9000000000000004
Au 11.700000000000001 7.800000000000001 3.9000000000000004
Au 11.700000000000001 9.100000000000001 2.6
Au 0.0 10.4 2.6
Au 0.0 11.700000000000001 3.9000000000000004
Au 1.3 10.4 3.9000000000000004
Au 1.3 11.700000000000001 2.6
Au 2.6 10.4 2.6
Au 2.6 11.700000000000001 3.9000000000000004
Au 3.9000000000000004 10.4 3.9000000000000004
Au 3.9000000000000004 11.700000000000001 2.6
Au 5.2 10.4 2.6
Au 5.2 11.700000000000001 3.9000000000000004
Au 6.5 10.4 3.9000000000000004
Au 6.5 11.700000000000001 2.6
Au 7.800000000000001 10.4 2.6
Au 7.800000000000001 11.700000000000001 3.9000000000000004
Au 9.100000000000001 10.4 3.9000000000000004
Au 9.100000000000001 11.700000000000001 2.6
Au 10.4 10.4 2.6
Au 10.4 11.700000000000001 3.9000000000000004
Au 11.700000000000001 10.4 3.9000000000000004
Au 11.700000000000001 11.700000000000001 2.6
Au 0.0 0.0 5.2
Au 0.0 1.3 6.5
Au 1.3 0.0 6.5
Au 1.3 1.3 5.2
Au 2.6 0.0 5.2
Au 2.6 1.3 6.5
Au 3.9000000000000004 0.0 6.5
Au 3.9000000000000004 1.3 5.2
Au 5.2 0.0 5.2
Au 5.2 1.3 6.5
Au 6.5 0.0 6.5
Au 6.5 1.3 5.2
Au 7.800000000000001 0.0 5.2
Au 7.800000000000001 1.3 6.5
Au 9.100000000000001 0.0 6.5
Au 9.100000000000001 1.3 5.2
Au 10.4 0.0 5.2
Au 10.4 1.3 6.5
Au 11.700000000000001 0.0 6.5
Au 11.700000000000001 1.3 5.2
Au 0.0 2.6 5.2
Au 0.0 3.9000000000000004 6.5
Au 1.3 2.6 6.5
Au 1.3 3.9000000000000004 5.2
Au 2.6 2.6 5.2
Au 2.6 3.9000000000000004 6.5
Au 3.9000000000000004 2.6 6.5
Au 3.9000000000000004 3.9000000000000004 5.2
Au 5.2 2.6 5.2
Au 5.2 3.9000000000000004 6.5
Au 6.5 2.6 6.5
Au 6.5 3.9000000000000004 5.2
Au 7.800000000000001 2.6 5.2
Au 7.800000000000001 3.9000000000000004 6.5
Au 9.100000000000001 2.6 6.5
Au 9.100000000000001 3.9000000000000004 5.2
Au 10.4 2.6 5.2
Au 10.4 3.9000000000000004 6.5
Au 11.700000000000001 2.6 6.5
Au 11.700000000000001 3.9000000000000004 5.2
Au 0.0 5.2 5.2
Au 0.0 6.5 6.5
Au 1.3 5.2 6.5
Au 1.3 6.5 5.2
Au 2.6 5.2 5.2
Au 2.6 6.5 6.5
Au 3.9000000000000004 5.2 6.5
Au 3.9000000000000004 6.5 5.2
Au 5.2 5.2 5.2
Au 5.2 6.5 6.5
Au 6.5 5.2 6.5
Au 6.5 6.5 5.2
Au 7.800000000000001 5.2 5.2
Au 7.800000000000001 6.5 6.5
Au 9.100000000000001 5.2 6.5
Au 9.100000000000001 6.5 5.2
Au 10.4 5.2 5.2
Au 10.4 6.5 6.5
Au 11.700000000000001 5.2 6.5
Au 11.700000000000001 6.5 5.2
Au 0.0 7.800000000000001 5.2
Au 0.0 9.100000000000001 6.5
Au 1.3 7.800000000000001 6.5
Au 1.3 9.100000000000001 5.2
Au 2.6 7.800000000000001 5.2
Au 2.6 9.100000000000001 6.5
Au 3.9000000000000004 7.800000000000001 6.5
Au 3.9000000000000004 9.100000000000001 5.2
Au 5.2 7.800000000000001 5.2
Au 5.2 9.100000000000001 6.5
Au 6.5 7.800000000000001 6.5
Au 6.5 9.100000000000001 5.2
Au 7.800000000000001 7.800000000000001 5.2
Au 7.800000000000001 9.100000000000001 6.5
Au 9.100000000000001 7.800000000000001 6.5
Au 9.100000000000001 9.100000000000001 5.2
Au 10.4 7.800000000000001 5.2
Au 10.4 9.100000000000001 6.5
Au 11.700000000000001 7.800000000000001 6.5
Au 11.700000000000001 9.100000000000001 5.2
Au 0.0 10.4 5.2
Au 0.0 11.700000000000001 6.5
Au 1.3 10.4 6.5
Au 1.3 11.700000000000001 5.2
Au 2.6 10.4 5.2
Au 2.6 11.700000000000001 6.5
Au 3.9000000000000004 10.4 6.5
Au 3.9000000000000004 11.700000000000001 5.2
Au 5.2 10.4 5.2
Au 5.2 11.700000000000001 6.5
Au 6.5 10.4 6.5
Au 6.5 11.700000000000001 5.2
Au 7.800000000000001 10.4 5.2
Au 7.800000000000001 11.700000000000001 6.5
Au 9.100000000000001 10.4 6.5
Au 9.100000000000001 11.700000000000001 5.2
Au 10.4 10.4 5.2
Au 10.4 11.700000000000001 6.5
Au 11.700000000000001 10.4 6.5
Au 11.700000000000001 11.700000000000001 5.2
Au 0.0 0.0 7.800000000000001
Au 0.0 1.3 9.100000000000001
Au 1.3 0.0 9.100000000000001
Au 1.3 1.3 7.800000000000001
Au 2.6 0.0 7.800000000000001
Au 2.6 1.3 9.100000000000001
Au 3.9000000000000004 0.0 9.100000000000001
Au 3.9000000000000004 1.3 7.800000000000001
Au 5.2 0.0 7.800000000000001
Au 5.2 1.3 9.100000000000001
Au 6.5 0.0 9.100000000000001
Au 6.5 1.3 7.800000000000001
Au 7.800000000000001 0.0 7.800000000000001
Au 7.800000000000001 1.3 9.100000000000001
Au 9.100000000000001 0.0 9.100000000000001
Au 9.100000000000001 1.3 7.800000000000001
Au 10.4 0.0 7.800000000000001
Au 10.4 1.3 9.100000000000001
Au 11.700000000000001 0.0 9.100000000000001
Au 11.700000000000001 1.3 7.800000000000001
Au 0.0 2.6 7.800000000000001
Au 0.0 3.9000000000000004 9.100000000000001
Au 1.3 2.6 9.100000000000001
Au 1.3 3.9000000000000004 7.800000000000001
Au 2.6 2.6 7.800000000000001
Au 2.6 3.9000000000000004 9.100000000000001
Au 3.9000000000000004 2.6 9.100000000000001
Au 3.9000000000000004 3.9000000000000004 7.800000000000001
Au 5.2 2.6 7.800000000000001
Au 5.2 3.9000000000000004 9.100000000000001
Au 6.5 2.6 9.100000000000001
Au 6.5 3.9000000000000004 7.800000000000001
Au 7.800000000000001 2.6 7.800000000000001
Au 7.800000000000001 3.9000000000000004 9.100000000000001
Au 9.100000000000001 2.6 9.100000000000001
Au 9.100000000000001 3.9000000000000004 7.800000000000001
Au 10.4 2.6 7.800000000000001
Au 10.4 3.9000000000000004 9.100000000000001
Au 11.700000000000001 2.6 9.100000000000001
Au 11.700000000000001 3.9000000000000004 7.800000000000001
Au 0.0 5.2 7.800000000000001
Au 0.0 6.5 9.100000000000001
Au 1.3 5.2 9.100000000000001
Au 1.3 6.5 7.800000000000001
Au 2.6 5.2 7.800000000000001
Au 2.6 6.5 9.100000000000001
Au 3.9000000000000004 5.2 9.100000000000001
Au 3.9000000000000004 6.5 7.800000000000001
Au 5.2 5.2 7.800000000000001
Au 5.2 6.5 9.100000000000001
Au 6.5 5.2 9.100000000000001
Au 6.5 6.5 7.800000000000001
Au 7.800000000000001 5.2 7.800000000000001
Au 7.800000000000001 6.5 9.100000000000001
Au 9.100000000000001 5.2 9.100000000000001
Au 9.100000000000001 6.5 7.800000000000001
Au 10.4 5.2 7.800000000000001
Au 10.4 6.5 9.100000000000001
Au 11.700000000000001 5.2 9.100000000000001
Au 11.700000000000001 6.5 7.800000000000001
Au 0.0 7.800000000000001 7.800000000000001
Au 0.0 9.100000000000001 9.100000000000001
Au 1.3 7.800000000000001 9.100000000000001
Au 1.3 9.100000000000001 7.800000000000001
Au 2.6 7.800000000000001 7.800000000000001
Au 2.6 9.100000000000001 9.100000000000001
Au 3.9000000000000004 7.800000000000001 9.100000000000001
Au 3.9000000000000004 9.100000000000001 7.800000000000001
Au 5.2 7.800000000000001 7.800000000000001
Au 5.2 9.100000000000001 9.100000000000001
Au 6.5 7.800000000000001 9.100000000000001
Au 6.5 9.100000000000001 7.800000000000001
Au 7.800000000000001 7.800000000000001 7.800000000000001
Au 7.800000000000001 9.100000000000001 9.100000000000001
Au 9.100000000000001 7.800000000000001 9.100000000000001
Au 9.100000000000001 9.100000000000001 7.800000000000001
Au 10.4 7.800000000000001 7.800000000000001
Au 10.4 9.100000000000001 9.100000000000001
Au 11.700000000000001 7.800000000000001 9.100000000000001
Au 11.700000000000001 9.100000000000001 7.800000000000001
Au 0.0 10.4 7.800000000000001
Au 0.0 11.700000000000001 9.100000000000001
Au 1.3 10.4 9.100000000000001
Au 1.3 11.700000000000001 7.800000000000001
Au 2.6 10.4 7.800000000000001
Au 2.6 11.700000000000001 9.100000000000001
Au 3.9000000000000004 10.4 9.100000000000001
Au 3.9000000000000004 11.700000000000001 7.800000000000001
Au 5.2 10.4 7.800000000000001
Au 5.2 11.700000000000001 9.100000000000001
Au 6.5 10.4 9.100000000000001
Au 6.5 11.700000000000001 7.800000000000001
Au 7.800000000000001 10.4 7.800000000000001
Au 7.800000000000001 11.700000000000001 9.100000000000001
Au 9.100000000000001 10.4 9.100000000000001
Au 9.100000000000001 11.700000000000001 7.800000000000001
Au 10.4 10.4 7.800000000000001
Au 10.4 11.700000000000001 9.100000000000001
Au 11.700000000000001 10.4 9.100000000000001
Au 11.700000000000001 11.700000000000001 7.800000000000001
Au 0.0 0.0 10.4
Au 0.0 1.3 11.700000000000001
Au 1.3 0.0 11.700000000000001
Au 1.3 1.3 10.4
Au 2.6 0.0 10.4
Au 2.6 1.3 11.700000000000001
Au 3.9000000000000004 0.0 11.700000000000001
Au 3.9000000000000004 1.3 10.4
Au 5.2 0.0 10.4
Au 5.2 1.3 11.700000000000001
Au 6.5 0.0 11.700000000000001
Au 6.5 1.3 10.4
Au 7.800000000000001 0.0 10.4
Au 7.800000000000001 1.3 11.700000000000001
Au 9.100000000000001 0.0 11.700000000000001
Au 9.100000000000001 1.3 10.4
Au 10.4 0.0 10.4
Au 10.4 1.3 11.700000000000001
Au 11.700000000000001 0.0 11.700000000000001
Au 11.700000000000001 1.3 10.4
Au 0.0 2.6 10.4
Au 0.0 3.9000000000000004 11.700000000000001
Au 1.3 2.6 11.700000000000001
Au 1.3 3.9000000000000004 10.4
Au 2.6 2.6 10.4
Au 2.6 3.9000000000000004 11.700000000000001
Au 3.9000000000000004 2.6 11.700000000000001
Au 3.9000000000000004 3.9000000000000004 10.4
Au 5.2 2.6 10.4
Au 5.2 3.9000000000000004 11.700000000000001
Au 6.5 2.6 11.700000000000001
Au 6.5 3.9000000000000004 10.4
Au 7.800000000000001 2.6 10.4
Au 7.800000000000001 3.9000000000000004 11.700000000000001
Au 9.100000000000001 2.6 11.700000000000001
Au 9.100000000000001 3.9000000000000004 10.4
Au 10.4 2.6 10.4
Au 10.4 3.9000000000000004 11.700000000000001
Au 11.700000000000001 2.6 11.700000000000001
Au 11.700000000000001 3.9000000000000004 10.4
Au 0.0 5.2 10.4
Au 0.0 6.5 11.700000000000001
Au 1.3 5.2 11.700000000000001
Au 1.3 6.5 10.4
Au 2.6 5.2 10.4
Au 2.6 6.5 11.700000000000001
Au 3.9000000000000004 5.2 11.700000000000001
Au 3.9000000000000004 6.5 10.4
Au 5.2 5.2 10.4
Au 5.2 6.5 11.700000000000001
Au 6.5 5.2 11.700000000000001
Au 6.5 6.5 10.4
Au 7.800000000000001 5.2 10.4
Au 7.800000000000001 6.5 11.700000000000001
Au 9.100000000000001 5.2 11.700000000000001
Au 9.100000000000001 6.5 10.4
Au 10.4 5.2 10.4
Au 10.4 6.5 11.700000000000001
Au 11.700000000000001 5.2 11.700000000000001
Au 11.700000000000001 6.5 10.4
Au 0.0 7.800000000000001 10.4
Au 0.0 9.100000000000001 11.700000000000001
Au 1.3 7.800000000000001 11.700000000000001
Au 1.3 9.100000000000001 10.4
Au 2.6 7.800000000000001 10.4
Au 2.6 9.100000000000001 11.700000000000001
Au 3.9000000000000004 7.800000000000001 11.700000000000001
Au 3.9000000000000004 9.100000000000001 10.4
Au 5.2 7.800000000000001 10.4
Au 5.2 9.100000000000001 11.700000000000001
Au 6.5 7.800000000000001 11.700000000000001
Au 6.5 9.100000000000001 10.4
Au 7.800000000000001 7.800000000000001 10.4
Au 7.800000000000001 9.100000000000001 11.700000000000001
Au 9.100000000000001 7.800000000000001 11.700000000000001
Au 9.100000000000001 9.100000000000001 10.4
Au 10.4 7.800000000000001 10.4
Au 10.4 9.100000000000001 11.700000000000001
Au 11.700000000000001 7.800000000000001 11.700000000000001
Au 11.700000000000001 9.100000000000001 10.4
Au 0.0 10.4 10.4
Au 0.0 11.700000000000001 11.700000000000001
Au 1.3 10.4 11.700000000000001
Au 1.3 11.700000000000001 10.4
Au 2.6 10.4 10.4
Au 2.6 11.700000000000001 11.700000000000001
Au 3.9000000000000004 10.4 11.700000000000001
Au 3.9000000000000004 11.700000000000001 10.4
Au 5.2 10.4 10.4
Au 5.2 11.700000000000001 11.700000000000001
Au 6.5 10.4 11.700000000000001
Au 6.5 11.700000000000001 10.4
Au 7.800000000000001 10.4 10.4
Au 7.800000000000001 11.700000000000001 11.700000000000001
Au 9.100000000000001 10.4 11.700000000000001
Au 9.100000000000001 11.700000000000001 10.4
Au 10.4 10.4 10.4
Au 10.4 11.700000000000001 11.700000000000001
Au 11.700000000000001 10.4 11.700000000000001
Au 11.700000000000001 11.700000000000001 10.4
