16

Au 0.0000 0.0000 0.0000
Au 0.0000 1.2000 1.2000
Au 1.2000 0.0000 1.2000
Au 1.2000 1.2000 0.0000
Au 2.4000 0.0000 0.0000
Au 2.4000 1.2000 1.2000
Au 3.6000 0.0000 1.2000
Au 3.6000 1.2000 0.0000
Au 0.0000 2.4000 0.0000
Au 0.0000 3.6000 1.2000
Au 1.2000 2.4000 1.2000
Au 1.2000 3.6000 0.0000
Au 2.4000 2.4000 0.0000
Au 2.4000 3.6000 1.2000
Au 3.6000 2.4000 1.2000
Au 3.6000 3.6000 0.0000
