64

Cl 2.81   2.81   2.81
Cl 2.81   2.81   8.43
Cl 2.81   8.43   2.81
Cl 2.81   8.43   8.43
Cl 8.43   2.81   2.81
Cl 8.43   2.81   8.43
Cl 8.43   8.43   2.81
Cl 8.43   8.43   8.43
Cl 2.81   0   0
Cl 2.81   0   5.62
Cl 2.81   0   11.24
Cl 2.81   5.62   0
Cl 2.81   5.62   5.62
Cl 2.81   5.62   11.24
Cl 2.81   11.24   0
Cl 2.81   11.24   5.62
Cl 2.81   11.24   11.24
Cl 8.43   0   0
Cl 8.43   0   5.62
Cl 8.43   0   11.24
Cl 8.43   5.62   5.62
Cl 8.43   5.62   11.24
Cl 8.43   11.24   0
Cl 8.43   11.24   5.62
Cl 8.43   11.24   11.24
Cl 0   2.81   0
Cl 0   2.81   5.62
Cl 0   2.81   11.24
Cl 0   8.43   0
Cl 0   8.43   5.62
Cl 0   8.43   11.24
Cl 5.62   2.81   0
Cl 5.62   2.81   5.62
Cl 5.62   2.81   11.24
Cl 5.62   8.43   0
Cl 5.62   8.43   5.62
Cl 5.62   8.43   11.24
Cl 11.24   2.81   0
Cl 11.24   2.81   5.62
Cl 11.24   2.81   11.24
Cl 11.24   8.43   0
Cl 11.24   8.43   5.62
Cl 11.24   8.43   11.24
Cl 0   0   2.81
Cl 0   0   8.43
Cl 0   5.62   2.81
Cl 0   5.62   8.43
Cl 0   11.24   2.81
Cl 0   11.24   8.43
Cl 5.62   0   2.81
Cl 5.62   0   8.43
Cl 5.62   5.62   2.81
Cl 5.62   5.62   8.43
Cl 5.62   11.24   2.81
Cl 5.62   11.24   8.43
Cl 11.24   0   2.81
Cl 11.24   0   8.43
Cl 11.24   5.62   2.81
Cl 11.24   5.62   8.43
Cl 11.24   11.24   2.81
Cl 11.24   11.24   8.43
V 13.4889   -0.911091   -0.995769
V -0.305899   13.7257   -0.37459
V -0.95417   -0.801082   13.1421
