128

Cl 2.81   2.81   2.81
Cl 2.81   2.81   8.43
Cl 2.81   8.43   2.81
Cl 2.81   8.43   8.43
Cl 8.43   2.81   2.81
Cl 8.43   2.81   8.43
Cl 8.43   8.43   2.81
Cl 8.43   8.43   8.43
Cl 2.81   0   0
Cl 2.81   0   5.62
Cl 2.81   0   11.24
Cl 2.81   5.62   0
Cl 2.81   5.62   5.62
Cl 2.81   5.62   11.24
Cl 2.81   11.24   0
Cl 2.81   11.24   5.62
Cl 2.81   11.24   11.24
Cl 8.43   0   0
Cl 8.43   0   5.62
Cl 8.43   0   11.24
Cl 8.43   5.62   5.62
Cl 8.43   5.62   11.24
Cl 8.43   11.24   0
Cl 8.43   11.24   5.62
Cl 8.43   11.24   11.24
Cl 0   2.81   0
Cl 0   2.81   5.62
Cl 0   2.81   11.24
Cl 0   8.43   0
Cl 0   8.43   5.62
Cl 0   8.43   11.24
Cl 5.62   2.81   0
Cl 5.62   2.81   5.62
Cl 5.62   2.81   11.24
Cl 5.62   8.43   0
Cl 5.62   8.43   5.62
Cl 5.62   8.43   11.24
Cl 11.24   2.81   0
Cl 11.24   2.81   5.62
Cl 11.24   2.81   11.24
Cl 11.24   8.43   0
Cl 11.24   8.43   5.62
Cl 11.24   8.43   11.24
Cl 0   0   2.81
Cl 0   0   8.43
Cl 0   5.62   2.81
Cl 0   5.62   8.43
Cl 0   11.24   2.81
Cl 0   11.24   8.43
Cl 5.62   0   2.81
Cl 5.62   0   8.43
Cl 5.62   5.62   2.81
Cl 5.62   5.62   8.43
Cl 5.62   11.24   2.81
Cl 5.62   11.24   8.43
Cl 11.24   0   2.81
Cl 11.24   0   8.43
Cl 11.24   5.62   2.81
Cl 11.24   5.62   8.43
Cl 11.24   11.24   2.81
Cl 11.24   11.24   8.43
 0   0   0
 0   0   0
 0   0   0
 0   0   0
 0   0   0
 0   0   0
 0   0   0
 0   0   0
 0   0   0
 0   0   0
 0   0   0
 0   0   0
 0   0   0
 0   0   0
 0   0   0
 0   0   0
 0   0   0
 0   0   0
 0   0   0
 0   0   0
 0   0   0
 0   0   0
 0   0   0
 0   0   0
 0   0   0
 0   0   0
 0   0   0
 0   0   0
 0   0   0
 0   0   0
 0   0   0
 0   0   0
 0   0   0
 0   0   0
 0   0   0
 0   0   0
 0   0   0
 0   0   0
 0   0   0
 0   0   0
 0   0   0
 0   0   0
 0   0   0
 0   0   0
 0   0   0
 0   0   0
 0   0   0
 0   0   0
 0   0   0
 0   0   0
 0   0   0
 0   0   0
 0   0   0
 0   0   0
 0   0   0
 0   0   0
 0   0   0
 0   0   0
 0   0   0
 0   0   0
 0   0   0
 0   0   0
 0   0   0
V -0.809476   13.6487   -0.865559
V -0.970304   -0.489509   13.7997
V 8.39316   5.72192   -0.776363
V 13.6465   -0.720041   -0.025138
