69

Na 0   0   0
Na 0   0   5.62
Na 0   0   11.24
Na 0   5.62   0
Na 0   5.62   5.62
Na 0   5.62   11.24
Na 0   11.24   0
Na 0   11.24   5.62
Na 0   11.24   11.24
Na 5.62   0   0
Na 5.62   0   5.62
Na 5.62   0   11.24
Na 5.62   5.62   0
Na 5.62   5.62   5.62
Na 5.62   5.62   11.24
Na 5.62   11.24   0
Na 5.62   11.24   5.62
Na 5.62   11.24   11.24
Na 11.24   0   5.62
Na 11.24   0   11.24
Na 11.24   5.62   0
Na 11.24   5.62   5.62
Na 11.24   5.62   11.24
Na 11.24   11.24   0
Na 11.24   11.24   5.62
Na 11.24   11.24   11.24
Na 0   2.81   2.81
Na 0   2.81   8.43
Na 0   8.43   2.81
Na 0   8.43   8.43
Na 5.62   2.81   2.81
Na 5.62   2.81   8.43
Na 5.62   8.43   2.81
Na 11.24   2.81   2.81
Na 11.24   2.81   8.43
Na 11.24   8.43   2.81
Na 11.24   8.43   8.43
Na 2.81   0   2.81
Na 2.81   0   8.43
Na 2.81   5.62   2.81
Na 2.81   5.62   8.43
Na 2.81   11.24   2.81
Na 2.81   11.24   8.43
Na 8.43   0   2.81
Na 8.43   0   8.43
Na 8.43   5.62   2.81
Na 8.43   5.62   8.43
Na 8.43   11.24   2.81
Na 8.43   11.24   8.43
Na 2.81   2.81   0
Na 2.81   2.81   5.62
Na 2.81   2.81   11.24
Na 2.81   8.43   0
Na 2.81   8.43   5.62
Na 2.81   8.43   11.24
Na 8.43   2.81   0
Na 8.43   2.81   5.62
Na 8.43   2.81   11.24
Na 8.43   8.43   0
Na 8.43   8.43   5.62
Na 8.43   8.43   11.24
V 10.3983   -0.785197   -0.782093
V -0.941111   -0.942138   2.28453
V -0.97106   3.34793   -0.977736
V -0.974118   -0.994325   7.53582
V 13.6985   1.82764   -0.924944
V 2.65647   -0.908248   -0.938134
V -0.862325   7.93792   -0.994661
V 13.1482   -1.84378   2.41094
