61

Na    0.000000    0.000000    0.000000
Na    0.000000    0.000000    5.620000
Na    0.000000    0.000000   11.240000
Na    0.000000    5.620000    0.000000
Na    0.000000    5.620000    5.620000
Na    0.000000    5.620000   11.240000
Na    0.000000   11.240000    0.000000
Na    0.000000   11.240000    5.620000
Na    0.000000   11.240000   11.240000
Na    5.620000    0.000000    0.000000
Na    5.620000    0.000000    5.620000
Na    5.620000    0.000000   11.240000
Na    5.620000    5.620000    0.000000
Na    5.620000    5.620000    5.620000
Na    5.620000    5.620000   11.240000
Na    5.620000   11.240000    0.000000
Na    5.620000   11.240000    5.620000
Na    5.620000   11.240000   11.240000
Na   11.240000    0.000000    5.620000
Na   11.240000    0.000000   11.240000
Na   11.240000    5.620000    0.000000
Na   11.240000    5.620000    5.620000
Na   11.240000    5.620000   11.240000
Na   11.240000   11.240000    0.000000
Na   11.240000   11.240000    5.620000
Na   11.240000   11.240000   11.240000
Na    0.000000    2.810000    2.810000
Na    0.000000    2.810000    8.430000
Na    0.000000    8.430000    2.810000
Na    0.000000    8.430000    8.430000
Na    5.620000    2.810000    2.810000
Na    5.620000    2.810000    8.430000
Na    5.620000    8.430000    2.810000
Na   11.240000    2.810000    2.810000
Na   11.240000    2.810000    8.430000
Na   11.240000    8.430000    2.810000
Na   11.240000    8.430000    8.430000
Na    2.810000    0.000000    2.810000
Na    2.810000    0.000000    8.430000
Na    2.810000    5.620000    2.810000
Na    2.810000    5.620000    8.430000
Na    2.810000   11.240000    2.810000
Na    2.810000   11.240000    8.430000
Na    8.430000    0.000000    2.810000
Na    8.430000    0.000000    8.430000
Na    8.430000    5.620000    2.810000
Na    8.430000    5.620000    8.430000
Na    8.430000   11.240000    2.810000
Na    8.430000   11.240000    8.430000
Na    2.810000    2.810000    0.000000
Na    2.810000    2.810000    5.620000
Na    2.810000    2.810000   11.240000
Na    2.810000    8.430000    0.000000
Na    2.810000    8.430000    5.620000
Na    2.810000    8.430000   11.240000
Na    8.430000    2.810000    0.000000
Na    8.430000    2.810000    5.620000
Na    8.430000    2.810000   11.240000
Na    8.430000    8.430000    0.000000
Na    8.430000    8.430000    5.620000
Na    8.430000    8.430000   11.240000
