50

Li 1.7550 1.7550 1.7550
Li 7.0200 0.0000 0.0000
Li 8.7750 1.7550 1.7550
Li 14.0400 0.0000 0.0000
Li 0.0000 3.5100 0.0000
Li 1.7550 5.2650 1.7550
Li 3.5100 3.5100 0.0000
Li 5.2650 5.2650 1.7550
Li 10.5300 3.5100 0.0000
Li 14.0400 3.5100 0.0000
Li 15.7950 5.2650 1.7550
Li 0.0000 7.0200 0.0000
Li 3.5100 7.0200 0.0000
Li 8.7750 8.7750 1.7550
Li 12.2850 8.7750 1.7550
Li 15.7950 8.7750 1.7550
Li 3.5100 10.5300 0.0000
Li 7.0200 10.5300 0.0000
Li 8.7750 12.2850 1.7550
Li 12.2850 12.2850 1.7550
Li 14.0400 10.5300 0.0000
Li 1.7550 15.7950 1.7550
Li 5.2650 15.7950 1.7550
Li 7.0200 14.0400 0.0000
Li 8.7750 15.7950 1.7550
Li 14.0400 14.0400 0.0000
Li 0.0000 0.0000 3.5100
Li 3.5100 0.0000 3.5100
Li 8.7750 1.7550 5.2650
Li 10.5300 0.0000 3.5100
Li 12.2850 1.7550 5.2650
Li 14.0400 0.0000 3.5100
Li 15.7950 1.7550 5.2650
Li 5.2650 5.2650 5.2650
Li 7.0200 3.5100 3.5100
Li 10.5300 3.5100 3.5100
Li 12.2850 5.2650 5.2650
Li 15.7950 5.2650 5.2650
Li 7.0200 7.0200 3.5100
Li 15.7950 8.7750 5.2650
Li 3.5100 10.5300 3.5100
Li 7.0200 10.5300 3.5100
Li 10.5300 10.5300 3.5100
Li 12.2850 12.2850 5.2650
Li 0.0000 14.0400 3.5100
Li 5.2650 15.7950 5.2650
Li 7.0200 14.0400 3.5100
Li 8.7750 15.7950 5.2650
Li 10.5300 14.0400 3.5100
Li 14.0400 14.0400 3.5100
