995

Na 0   0   0
Na 4.29   0   0
Na 6.435   2.145   2.145
Na 10.725   2.145   2.145
Na 12.87   0   0
Na 15.015   2.145   2.145
Na 17.16   0   0
Na 19.305   2.145   2.145
Na 21.45   0   0
Na 23.595   2.145   2.145
Na 25.74   0   0
Na 27.885   2.145   2.145
Na 32.175   2.145   2.145
Na 34.32   0   0
Na 36.465   2.145   2.145
Na 38.61   0   0
Na 40.755   2.145   2.145
Na 0   4.29   0
Na 2.145   6.435   2.145
Na 4.29   4.29   0
Na 6.435   6.435   2.145
Na 8.58   4.29   0
Na 10.725   6.435   2.145
Na 12.87   4.29   0
Na 15.015   6.435   2.145
Na 17.16   4.29   0
Na 19.305   6.435   2.145
Na 21.45   4.29   0
Na 23.595   6.435   2.145
Na 25.74   4.29   0
Na 27.885   6.435   2.145
Na 30.03   4.29   0
Na 32.175   6.435   2.145
Na 34.32   4.29   0
Na 36.465   6.435   2.145
Na 40.755   6.435   2.145
Na 0   8.58   0
Na 2.145   10.725   2.145
Na 4.29   8.58   0
Na 6.435   10.725   2.145
Na 8.58   8.58   0
Na 10.725   10.725   2.145
Na 12.87   8.58   0
Na 15.015   10.725   2.145
Na 19.305   10.725   2.145
Na 21.45   8.58   0
Na 23.595   10.725   2.145
Na 25.74   8.58   0
Na 27.885   10.725   2.145
Na 30.03   8.58   0
Na 32.175   10.725   2.145
Na 34.32   8.58   0
Na 36.465   10.725   2.145
Na 38.61   8.58   0
Na 40.755   10.725   2.145
Na 8.58   12.87   0
Na 10.725   15.015   2.145
Na 12.87   12.87   0
Na 15.015   15.015   2.145
Na 17.16   12.87   0
Na 19.305   15.015   2.145
Na 21.45   12.87   0
Na 23.595   15.015   2.145
Na 27.885   15.015   2.145
Na 30.03   12.87   0
Na 34.32   12.87   0
Na 36.465   15.015   2.145
Na 38.61   12.87   0
Na 40.755   15.015   2.145
Na 2.145   19.305   2.145
Na 4.29   17.16   0
Na 8.58   17.16   0
Na 10.725   19.305   2.145
Na 12.87   17.16   0
Na 21.45   17.16   0
Na 23.595   19.305   2.145
Na 27.885   19.305   2.145
Na 30.03   17.16   0
Na 32.175   19.305   2.145
Na 38.61   17.16   0
Na 0   21.45   0
Na 2.145   23.595   2.145
Na 4.29   21.45   0
Na 6.435   23.595   2.145
Na 8.58   21.45   0
Na 12.87   21.45   0
Na 15.015   23.595   2.145
Na 21.45   21.45   0
Na 23.595   23.595   2.145
Na 25.74   21.45   0
Na 27.885   23.595   2.145
Na 32.175   23.595   2.145
Na 36.465   23.595   2.145
Na 38.61   21.45   0
Na 2.145   27.885   2.145
Na 4.29   25.74   0
Na 6.435   27.885   2.145
Na 8.58   25.74   0
Na 10.725   27.885   2.145
Na 12.87   25.74   0
Na 19.305   27.885   2.145
Na 21.45   25.74   0
Na 23.595   27.885   2.145
Na 25.74   25.74   0
Na 27.885   27.885   2.145
Na 30.03   25.74   0
Na 32.175   27.885   2.145
Na 34.32   25.74   0
Na 36.465   27.885   2.145
Na 38.61   25.74   0
Na 2.145   32.175   2.145
Na 8.58   30.03   0
Na 10.725   32.175   2.145
Na 12.87   30.03   0
Na 15.015   32.175   2.145
Na 17.16   30.03   0
Na 19.305   32.175   2.145
Na 27.885   32.175   2.145
Na 32.175   32.175   2.145
Na 34.32   30.03   0
Na 36.465   32.175   2.145
Na 38.61   30.03   0
Na 0   34.32   0
Na 4.29   34.32   0
Na 8.58   34.32   0
Na 10.725   36.465   2.145
Na 12.87   34.32   0
Na 15.015   36.465   2.145
Na 17.16   34.32   0
Na 19.305   36.465   2.145
Na 21.45   34.32   0
Na 23.595   36.465   2.145
Na 25.74   34.32   0
Na 27.885   36.465   2.145
Na 30.03   34.32   0
Na 32.175   36.465   2.145
Na 36.465   36.465   2.145
Na 38.61   34.32   0
Na 0   38.61   0
Na 2.145   40.755   2.145
Na 4.29   38.61   0
Na 6.435   40.755   2.145
Na 8.58   38.61   0
Na 10.725   40.755   2.145
Na 12.87   38.61   0
Na 17.16   38.61   0
Na 19.305   40.755   2.145
Na 21.45   38.61   0
Na 25.74   38.61   0
Na 27.885   40.755   2.145
Na 30.03   38.61   0
Na 32.175   40.755   2.145
Na 34.32   38.61   0
Na 36.465   40.755   2.145
Na 38.61   38.61   0
Na 40.755   40.755   2.145
Na 0   0   4.29
Na 4.29   0   4.29
Na 6.435   2.145   6.435
Na 8.58   0   4.29
Na 15.015   2.145   6.435
Na 17.16   0   4.29
Na 19.305   2.145   6.435
Na 23.595   2.145   6.435
Na 27.885   2.145   6.435
Na 30.03   0   4.29
Na 32.175   2.145   6.435
Na 34.32   0   4.29
Na 36.465   2.145   6.435
Na 38.61   0   4.29
Na 40.755   2.145   6.435
Na 2.145   6.435   6.435
Na 4.29   4.29   4.29
Na 6.435   6.435   6.435
Na 8.58   4.29   4.29
Na 10.725   6.435   6.435
Na 12.87   4.29   4.29
Na 15.015   6.435   6.435
Na 19.305   6.435   6.435
Na 21.45   4.29   4.29
Na 23.595   6.435   6.435
Na 25.74   4.29   4.29
Na 30.03   4.29   4.29
Na 32.175   6.435   6.435
Na 34.32   4.29   4.29
Na 36.465   6.435   6.435
Na 38.61   4.29   4.29
Na 40.755   6.435   6.435
Na 0   8.58   4.29
Na 4.29   8.58   4.29
Na 8.58   8.58   4.29
Na 10.725   10.725   6.435
Na 12.87   8.58   4.29
Na 15.015   10.725   6.435
Na 23.595   10.725   6.435
Na 25.74   8.58   4.29
Na 27.885   10.725   6.435
Na 30.03   8.58   4.29
Na 34.32   8.58   4.29
Na 36.465   10.725   6.435
Na 38.61   8.58   4.29
Na 40.755   10.725   6.435
Na 2.145   15.015   6.435
Na 6.435   15.015   6.435
Na 8.58   12.87   4.29
Na 12.87   12.87   4.29
Na 15.015   15.015   6.435
Na 19.305   15.015   6.435
Na 21.45   12.87   4.29
Na 23.595   15.015   6.435
Na 25.74   12.87   4.29
Na 27.885   15.015   6.435
Na 32.175   15.015   6.435
Na 34.32   12.87   4.29
Na 36.465   15.015   6.435
Na 40.755   15.015   6.435
Na 0   17.16   4.29
Na 4.29   17.16   4.29
Na 6.435   19.305   6.435
Na 12.87   17.16   4.29
Na 17.16   17.16   4.29
Na 19.305   19.305   6.435
Na 21.45   17.16   4.29
Na 25.74   17.16   4.29
Na 27.885   19.305   6.435
Na 30.03   17.16   4.29
Na 32.175   19.305   6.435
Na 34.32   17.16   4.29
Na 36.465   19.305   6.435
Na 38.61   17.16   4.29
Na 40.755   19.305   6.435
Na 0   21.45   4.29
Na 2.145   23.595   6.435
Na 4.29   21.45   4.29
Na 8.58   21.45   4.29
Na 10.725   23.595   6.435
Na 12.87   21.45   4.29
Na 19.305   23.595   6.435
Na 21.45   21.45   4.29
Na 25.74   21.45   4.29
Na 27.885   23.595   6.435
Na 30.03   21.45   4.29
Na 34.32   21.45   4.29
Na 40.755   23.595   6.435
Na 0   25.74   4.29
Na 4.29   25.74   4.29
Na 6.435   27.885   6.435
Na 8.58   25.74   4.29
Na 10.725   27.885   6.435
Na 12.87   25.74   4.29
Na 17.16   25.74   4.29
Na 19.305   27.885   6.435
Na 21.45   25.74   4.29
Na 23.595   27.885   6.435
Na 27.885   27.885   6.435
Na 30.03   25.74   4.29
Na 32.175   27.885   6.435
Na 34.32   25.74   4.29
Na 36.465   27.885   6.435
Na 40.755   27.885   6.435
Na 0   30.03   4.29
Na 2.145   32.175   6.435
Na 4.29   30.03   4.29
Na 8.58   30.03   4.29
Na 10.725   32.175   6.435
Na 12.87   30.03   4.29
Na 15.015   32.175   6.435
Na 17.16   30.03   4.29
Na 19.305   32.175   6.435
Na 21.45   30.03   4.29
Na 25.74   30.03   4.29
Na 30.03   30.03   4.29
Na 32.175   32.175   6.435
Na 34.32   30.03   4.29
Na 36.465   32.175   6.435
Na 38.61   30.03   4.29
Na 2.145   36.465   6.435
Na 4.29   34.32   4.29
Na 6.435   36.465   6.435
Na 8.58   34.32   4.29
Na 10.725   36.465   6.435
Na 12.87   34.32   4.29
Na 15.015   36.465   6.435
Na 17.16   34.32   4.29
Na 19.305   36.465   6.435
Na 21.45   34.32   4.29
Na 23.595   36.465   6.435
Na 27.885   36.465   6.435
Na 30.03   34.32   4.29
Na 32.175   36.465   6.435
Na 34.32   34.32   4.29
Na 36.465   36.465   6.435
Na 38.61   34.32   4.29
Na 40.755   36.465   6.435
Na 2.145   40.755   6.435
Na 4.29   38.61   4.29
Na 10.725   40.755   6.435
Na 12.87   38.61   4.29
Na 19.305   40.755   6.435
Na 21.45   38.61   4.29
Na 23.595   40.755   6.435
Na 25.74   38.61   4.29
Na 27.885   40.755   6.435
Na 30.03   38.61   4.29
Na 34.32   38.61   4.29
Na 36.465   40.755   6.435
Na 40.755   40.755   6.435
Na 0   0   8.58
Na 2.145   2.145   10.725
Na 4.29   0   8.58
Na 6.435   2.145   10.725
Na 8.58   0   8.58
Na 12.87   0   8.58
Na 17.16   0   8.58
Na 19.305   2.145   10.725
Na 21.45   0   8.58
Na 23.595   2.145   10.725
Na 25.74   0   8.58
Na 27.885   2.145   10.725
Na 32.175   2.145   10.725
Na 34.32   0   8.58
Na 36.465   2.145   10.725
Na 40.755   2.145   10.725
Na 0   4.29   8.58
Na 4.29   4.29   8.58
Na 6.435   6.435   10.725
Na 8.58   4.29   8.58
Na 10.725   6.435   10.725
Na 15.015   6.435   10.725
Na 17.16   4.29   8.58
Na 19.305   6.435   10.725
Na 21.45   4.29   8.58
Na 23.595   6.435   10.725
Na 27.885   6.435   10.725
Na 30.03   4.29   8.58
Na 32.175   6.435   10.725
Na 34.32   4.29   8.58
Na 38.61   4.29   8.58
Na 40.755   6.435   10.725
Na 0   8.58   8.58
Na 2.145   10.725   10.725
Na 6.435   10.725   10.725
Na 8.58   8.58   8.58
Na 10.725   10.725   10.725
Na 15.015   10.725   10.725
Na 17.16   8.58   8.58
Na 19.305   10.725   10.725
Na 21.45   8.58   8.58
Na 23.595   10.725   10.725
Na 27.885   10.725   10.725
Na 30.03   8.58   8.58
Na 32.175   10.725   10.725
Na 34.32   8.58   8.58
Na 36.465   10.725   10.725
Na 38.61   8.58   8.58
Na 40.755   10.725   10.725
Na 0   12.87   8.58
Na 6.435   15.015   10.725
Na 12.87   12.87   8.58
Na 15.015   15.015   10.725
Na 17.16   12.87   8.58
Na 19.305   15.015   10.725
Na 23.595   15.015   10.725
Na 25.74   12.87   8.58
Na 32.175   15.015   10.725
Na 36.465   15.015   10.725
Na 2.145   19.305   10.725
Na 6.435   19.305   10.725
Na 8.58   17.16   8.58
Na 10.725   19.305   10.725
Na 12.87   17.16   8.58
Na 15.015   19.305   10.725
Na 17.16   17.16   8.58
Na 19.305   19.305   10.725
Na 21.45   17.16   8.58
Na 23.595   19.305   10.725
Na 30.03   17.16   8.58
Na 34.32   17.16   8.58
Na 38.61   17.16   8.58
Na 40.755   19.305   10.725
Na 4.29   21.45   8.58
Na 6.435   23.595   10.725
Na 8.58   21.45   8.58
Na 10.725   23.595   10.725
Na 12.87   21.45   8.58
Na 15.015   23.595   10.725
Na 17.16   21.45   8.58
Na 19.305   23.595   10.725
Na 23.595   23.595   10.725
Na 30.03   21.45   8.58
Na 32.175   23.595   10.725
Na 34.32   21.45   8.58
Na 36.465   23.595   10.725
Na 38.61   21.45   8.58
Na 40.755   23.595   10.725
Na 2.145   27.885   10.725
Na 6.435   27.885   10.725
Na 8.58   25.74   8.58
Na 10.725   27.885   10.725
Na 12.87   25.74   8.58
Na 15.015   27.885   10.725
Na 17.16   25.74   8.58
Na 19.305   27.885   10.725
Na 21.45   25.74   8.58
Na 27.885   27.885   10.725
Na 30.03   25.74   8.58
Na 32.175   27.885   10.725
Na 34.32   25.74   8.58
Na 36.465   27.885   10.725
Na 40.755   27.885   10.725
Na 0   30.03   8.58
Na 4.29   30.03   8.58
Na 6.435   32.175   10.725
Na 8.58   30.03   8.58
Na 10.725   32.175   10.725
Na 12.87   30.03   8.58
Na 15.015   32.175   10.725
Na 19.305   32.175   10.725
Na 21.45   30.03   8.58
Na 23.595   32.175   10.725
Na 27.885   32.175   10.725
Na 32.175   32.175   10.725
Na 36.465   32.175   10.725
Na 38.61   30.03   8.58
Na 40.755   32.175   10.725
Na 0   34.32   8.58
Na 2.145   36.465   10.725
Na 4.29   34.32   8.58
Na 6.435   36.465   10.725
Na 8.58   34.32   8.58
Na 15.015   36.465   10.725
Na 17.16   34.32   8.58
Na 19.305   36.465   10.725
Na 21.45   34.32   8.58
Na 25.74   34.32   8.58
Na 30.03   34.32   8.58
Na 32.175   36.465   10.725
Na 34.32   34.32   8.58
Na 36.465   36.465   10.725
Na 38.61   34.32   8.58
Na 40.755   36.465   10.725
Na 2.145   40.755   10.725
Na 4.29   38.61   8.58
Na 6.435   40.755   10.725
Na 8.58   38.61   8.58
Na 10.725   40.755   10.725
Na 12.87   38.61   8.58
Na 15.015   40.755   10.725
Na 17.16   38.61   8.58
Na 21.45   38.61   8.58
Na 23.595   40.755   10.725
Na 25.74   38.61   8.58
Na 27.885   40.755   10.725
Na 30.03   38.61   8.58
Na 32.175   40.755   10.725
Na 36.465   40.755   10.725
Na 40.755   40.755   10.725
Na 0   0   12.87
Na 6.435   2.145   15.015
Na 10.725   2.145   15.015
Na 12.87   0   12.87
Na 15.015   2.145   15.015
Na 17.16   0   12.87
Na 19.305   2.145   15.015
Na 21.45   0   12.87
Na 23.595   2.145   15.015
Na 27.885   2.145   15.015
Na 38.61   0   12.87
Na 40.755   2.145   15.015
Na 0   4.29   12.87
Na 2.145   6.435   15.015
Na 4.29   4.29   12.87
Na 8.58   4.29   12.87
Na 12.87   4.29   12.87
Na 15.015   6.435   15.015
Na 17.16   4.29   12.87
Na 19.305   6.435   15.015
Na 27.885   6.435   15.015
Na 30.03   4.29   12.87
Na 32.175   6.435   15.015
Na 34.32   4.29   12.87
Na 0   8.58   12.87
Na 2.145   10.725   15.015
Na 4.29   8.58   12.87
Na 6.435   10.725   15.015
Na 10.725   10.725   15.015
Na 12.87   8.58   12.87
Na 15.015   10.725   15.015
Na 17.16   8.58   12.87
Na 19.305   10.725   15.015
Na 23.595   10.725   15.015
Na 25.74   8.58   12.87
Na 27.885   10.725   15.015
Na 30.03   8.58   12.87
Na 32.175   10.725   15.015
Na 38.61   8.58   12.87
Na 0   12.87   12.87
Na 2.145   15.015   15.015
Na 4.29   12.87   12.87
Na 6.435   15.015   15.015
Na 8.58   12.87   12.87
Na 10.725   15.015   15.015
Na 12.87   12.87   12.87
Na 15.015   15.015   15.015
Na 17.16   12.87   12.87
Na 21.45   12.87   12.87
Na 23.595   15.015   15.015
Na 27.885   15.015   15.015
Na 32.175   15.015   15.015
Na 36.465   15.015   15.015
Na 38.61   12.87   12.87
Na 4.29   17.16   12.87
Na 6.435   19.305   15.015
Na 8.58   17.16   12.87
Na 10.725   19.305   15.015
Na 15.015   19.305   15.015
Na 17.16   17.16   12.87
Na 19.305   19.305   15.015
Na 23.595   19.305   15.015
Na 25.74   17.16   12.87
Na 32.175   19.305   15.015
Na 36.465   19.305   15.015
Na 40.755   19.305   15.015
Na 0   21.45   12.87
Na 2.145   23.595   15.015
Na 4.29   21.45   12.87
Na 6.435   23.595   15.015
Na 8.58   21.45   12.87
Na 10.725   23.595   15.015
Na 12.87   21.45   12.87
Na 15.015   23.595   15.015
Na 17.16   21.45   12.87
Na 19.305   23.595   15.015
Na 23.595   23.595   15.015
Na 27.885   23.595   15.015
Na 30.03   21.45   12.87
Na 34.32   21.45   12.87
Na 38.61   21.45   12.87
Na 40.755   23.595   15.015
Na 0   25.74   12.87
Na 2.145   27.885   15.015
Na 4.29   25.74   12.87
Na 6.435   27.885   15.015
Na 8.58   25.74   12.87
Na 10.725   27.885   15.015
Na 12.87   25.74   12.87
Na 15.015   27.885   15.015
Na 17.16   25.74   12.87
Na 19.305   27.885   15.015
Na 23.595   27.885   15.015
Na 25.74   25.74   12.87
Na 27.885   27.885   15.015
Na 32.175   27.885   15.015
Na 38.61   25.74   12.87
Na 40.755   27.885   15.015
Na 0   30.03   12.87
Na 2.145   32.175   15.015
Na 4.29   30.03   12.87
Na 6.435   32.175   15.015
Na 8.58   30.03   12.87
Na 10.725   32.175   15.015
Na 12.87   30.03   12.87
Na 17.16   30.03   12.87
Na 21.45   30.03   12.87
Na 23.595   32.175   15.015
Na 25.74   30.03   12.87
Na 32.175   32.175   15.015
Na 34.32   30.03   12.87
Na 40.755   32.175   15.015
Na 2.145   36.465   15.015
Na 4.29   34.32   12.87
Na 6.435   36.465   15.015
Na 8.58   34.32   12.87
Na 12.87   34.32   12.87
Na 15.015   36.465   15.015
Na 19.305   36.465   15.015
Na 21.45   34.32   12.87
Na 23.595   36.465   15.015
Na 25.74   34.32   12.87
Na 27.885   36.465   15.015
Na 30.03   34.32   12.87
Na 32.175   36.465   15.015
Na 36.465   36.465   15.015
Na 38.61   34.32   12.87
Na 40.755   36.465   15.015
Na 0   38.61   12.87
Na 2.145   40.755   15.015
Na 4.29   38.61   12.87
Na 6.435   40.755   15.015
Na 10.725   40.755   15.015
Na 12.87   38.61   12.87
Na 15.015   40.755   15.015
Na 19.305   40.755   15.015
Na 21.45   38.61   12.87
Na 23.595   40.755   15.015
Na 25.74   38.61   12.87
Na 27.885   40.755   15.015
Na 30.03   38.61   12.87
Na 32.175   40.755   15.015
Na 34.32   38.61   12.87
Na 36.465   40.755   15.015
Na 40.755   40.755   15.015
Na 2.145   2.145   19.305
Na 4.29   0   17.16
Na 6.435   2.145   19.305
Na 8.58   0   17.16
Na 12.87   0   17.16
Na 15.015   2.145   19.305
Na 17.16   0   17.16
Na 21.45   0   17.16
Na 23.595   2.145   19.305
Na 25.74   0   17.16
Na 27.885   2.145   19.305
Na 30.03   0   17.16
Na 34.32   0   17.16
Na 36.465   2.145   19.305
Na 40.755   2.145   19.305
Na 0   4.29   17.16
Na 2.145   6.435   19.305
Na 4.29   4.29   17.16
Na 6.435   6.435   19.305
Na 8.58   4.29   17.16
Na 12.87   4.29   17.16
Na 15.015   6.435   19.305
Na 17.16   4.29   17.16
Na 19.305   6.435   19.305
Na 23.595   6.435   19.305
Na 25.74   4.29   17.16
Na 32.175   6.435   19.305
Na 34.32   4.29   17.16
Na 36.465   6.435   19.305
Na 38.61   4.29   17.16
Na 40.755   6.435   19.305
Na 0   8.58   17.16
Na 4.29   8.58   17.16
Na 8.58   8.58   17.16
Na 10.725   10.725   19.305
Na 12.87   8.58   17.16
Na 15.015   10.725   19.305
Na 17.16   8.58   17.16
Na 19.305   10.725   19.305
Na 23.595   10.725   19.305
Na 25.74   8.58   17.16
Na 27.885   10.725   19.305
Na 30.03   8.58   17.16
Na 34.32   8.58   17.16
Na 38.61   8.58   17.16
Na 40.755   10.725   19.305
Na 0   12.87   17.16
Na 2.145   15.015   19.305
Na 6.435   15.015   19.305
Na 8.58   12.87   17.16
Na 10.725   15.015   19.305
Na 12.87   12.87   17.16
Na 15.015   15.015   19.305
Na 17.16   12.87   17.16
Na 19.305   15.015   19.305
Na 27.885   15.015   19.305
Na 30.03   12.87   17.16
Na 34.32   12.87   17.16
Na 36.465   15.015   19.305
Na 38.61   12.87   17.16
Na 0   17.16   17.16
Na 4.29   17.16   17.16
Na 8.58   17.16   17.16
Na 15.015   19.305   19.305
Na 17.16   17.16   17.16
Na 19.305   19.305   19.305
Na 21.45   17.16   17.16
Na 23.595   19.305   19.305
Na 27.885   19.305   19.305
Na 30.03   17.16   17.16
Na 32.175   19.305   19.305
Na 34.32   17.16   17.16
Na 38.61   17.16   17.16
Na 0   21.45   17.16
Na 4.29   21.45   17.16
Na 6.435   23.595   19.305
Na 8.58   21.45   17.16
Na 10.725   23.595   19.305
Na 12.87   21.45   17.16
Na 17.16   21.45   17.16
Na 19.305   23.595   19.305
Na 21.45   21.45   17.16
Na 23.595   23.595   19.305
Na 25.74   21.45   17.16
Na 30.03   21.45   17.16
Na 34.32   21.45   17.16
Na 38.61   21.45   17.16
Na 40.755   23.595   19.305
Na 2.145   27.885   19.305
Na 4.29   25.74   17.16
Na 6.435   27.885   19.305
Na 8.58   25.74   17.16
Na 10.725   27.885   19.305
Na 12.87   25.74   17.16
Na 15.015   27.885   19.305
Na 17.16   25.74   17.16
Na 21.45   25.74   17.16
Na 23.595   27.885   19.305
Na 27.885   27.885   19.305
Na 30.03   25.74   17.16
Na 34.32   25.74   17.16
Na 38.61   25.74   17.16
Na 40.755   27.885   19.305
Na 0   30.03   17.16
Na 4.29   30.03   17.16
Na 6.435   32.175   19.305
Na 8.58   30.03   17.16
Na 10.725   32.175   19.305
Na 12.87   30.03   17.16
Na 15.015   32.175   19.305
Na 17.16   30.03   17.16
Na 23.595   32.175   19.305
Na 25.74   30.03   17.16
Na 27.885   32.175   19.305
Na 38.61   30.03   17.16
Na 40.755   32.175   19.305
Na 0   34.32   17.16
Na 2.145   36.465   19.305
Na 4.29   34.32   17.16
Na 6.435   36.465   19.305
Na 10.725   36.465   19.305
Na 12.87   34.32   17.16
Na 15.015   36.465   19.305
Na 21.45   34.32   17.16
Na 23.595   36.465   19.305
Na 27.885   36.465   19.305
Na 30.03   34.32   17.16
Na 32.175   36.465   19.305
Na 34.32   34.32   17.16
Na 36.465   36.465   19.305
Na 38.61   34.32   17.16
Na 40.755   36.465   19.305
Na 0   38.61   17.16
Na 4.29   38.61   17.16
Na 6.435   40.755   19.305
Na 12.87   38.61   17.16
Na 15.015   40.755   19.305
Na 17.16   38.61   17.16
Na 19.305   40.755   19.305
Na 21.45   38.61   17.16
Na 23.595   40.755   19.305
Na 27.885   40.755   19.305
Na 30.03   38.61   17.16
Na 32.175   40.755   19.305
Na 34.32   38.61   17.16
Na 36.465   40.755   19.305
Na 38.61   38.61   17.16
Na 40.755   40.755   19.305
V 34.461   30.1852   17.3193
V 26.7256   21.6952   10.5132
V 38.8631   21.2396   3.94253
V 31.2879   29.9136   18.877
V 8.87183   17.2876   4.56601
V 1.91968   18.964   6.85731
V 10.6955   14.9035   10.6759
V 17.1947   20.9043   3.52604
V 23.2406   6.39718   14.7544
V 24.1671   14.7253   18.8316
V 34.5731   21.2396   21.1025
V 40.6446   16.0649   12.7888
V 34.3918   17.7005   12.3496
V 34.5714   25.3304   13.5182
V 36.4355   32.0635   14.9659
V 38.4903   4.7382   13.2397
V 18.9282   10.6619   5.87465
V 28.2157   14.696   11.0582
V 29.4174   17.533   12.8106
V 1.87726   24.0953   9.93307
V 38.5047   25.7804   8.61708
V 31.9286   1.59312   14.5892
V 19.6038   14.992   15.1452
V 23.3896   21.6938   7.4809
V 42.6678   34.4943   3.90887
V 29.9226   30.0092   8.50567
V 8.97075   42.6663   21.1132
V 42.5877   17.6624   21.1888
V 30.3171   21.8519   21.1231
V 20.2525   29.7408   19.3484
V 12.311   3.51009   9.19421
V 17.2069   33.3755   15.2759
V 34.2414   34.0857   21.1488
V 28.2486   31.7171   15.1208
V 27.682   31.9738   6.58966
V 39.1544   25.6843   3.68132
V 2.21022   27.6016   6.62561
V 25.2182   33.9044   4.43337
V 23.6227   41.2376   2.58344
V 15.1081   2.16783   10.9096
V 27.1558   6.26918   7.09513
V 21.2169   12.6358   8.32186
V 31.6405   11.3158   6.48897
V 30.12   25.628   13.1797
V 24.1303   27.5237   10.3319
V 10.6246   6.52321   14.804
V 34.9021   8.48371   13.2705
V 27.7157   23.9379   19.1536
V 25.8883   34.2516   17.1168
V 8.47956   12.9582   8.36898
V 5.97219   23.8568   6.59047
V 4.27548   25.9344   8.50754
V 9.95928   36.9265   15.26
V 4.49758   11.7111   19.22
V 10.6495   19.2905   19.297
V 36.8967   23.7101   6.02343
V 13.3213   42.5654   4.37246
V 0.324504   21.6049   8.41308
V 4.18223   11.8722   7.77525
V 23.4344   31.4102   1.58288
V 0.0194602   16.3052   9.70041
V 8.9045   0.154939   12.7031
V 32.1025   19.4993   10.6686
V 1.8602   32.3654   11.0146
V 38.5258   30.0823   12.9635
V 32.1818   41.0241   6.59323
V 38.6168   13.1391   8.73823
V 36.8497   19.3839   10.548
V 34.3951   30.1995   8.70169
V 34.1571   38.5814   8.48884
V 34.3739   12.6006   12.8675
V 10.8318   36.2855   10.5968
V 17.1214   38.6933   12.6908
V 34.7497   17.4638   21.3663
V 17.2668   4.11055   4.16184
V 21.4803   8.51906   4.5176
V 4.25873   13.8384   2.40762
V 32.2386   15.3948   1.97863
V 25.9777   16.9568   8.82139
V 32.1725   23.7421   6.06635
V 25.3912   25.4645   4.21542
V 26.9163   25.1686   9.24682
V 16.632   39.1056   4.35771
V 2.29612   6.62388   10.4062
V 12.9451   8.74952   8.70169
V 21.7592   26.0493   12.9764
V 6.27207   32.1464   6.34384
V 14.9553   28.0772   6.75597
V 23.7137   31.7857   6.82382
V 6.30785   6.5485   14.923
V 21.2748   8.49209   17.1519
V 21.4044   21.4348   12.7289
V 12.8378   34.2797   8.63757
V 17.1918   30.1109   8.79251
V 10.6861   6.65476   19.2921
V 19.3953   2.1484   19.2844
V 31.8705   1.94241   19.5685
V 30.2395   4.16855   17.0752
V 32.0936   10.7153   19.4561
V 17.2503   25.7434   21.4294
V 8.54114   8.79976   12.8571
V 12.6994   17.0481   12.7693
V 25.6624   38.5578   17.1502
V 28.0945   6.31355   19.2202
V 25.65   17.2393   21.4415
V 17.07   21.5293   21.4415
V 25.6918   25.9719   17.1812
V 36.2178   19.2953   2.08271
V 8.35042   38.8988   4.3921
V 19.2211   40.719   10.6623
V 8.31991   38.8637   12.5318
V 10.8139   40.6034   18.8987
V 32.2695   14.8221   19.3426
V 19.2542   36.4227   19.186
V 17.1342   8.31488   0.190546
V 10.6661   2.09603   6.24748
V 34.3786   13.0241   8.42262
V 15.0525   40.6241   6.68197
V 4.06042   0.288779   12.9721
V 4.33904   8.51548   8.12978
V 29.9758   12.5783   13.0627
V 23.3597   36.5798   10.8112
V 1.9461   40.6841   19.2086
V 10.8361   2.60999   19.2027
V 38.2829   0.193568   16.9808
V 0.458517   3.75021   4.38133
V 1.97   2.12106   6.59944
V 25.8602   29.8726   0.0106986
V 42.8415   38.0975   3.84762
V 2.23619   31.5523   19.9473
V 8.70844   34.1186   17.5701
V 25.8602   12.7126   0.0106986
V 6.47484   19.4577   2.31156
V 24.0255   19.0059   6.26103
V 6.15849   31.7831   1.9892
V 14.8534   27.7859   2.4802
V 41.5623   28.0904   1.37703
V 15.1999   23.5547   6.20089
V 40.6971   32.1663   6.40606
V 1.91952   1.98219   14.9709
V 25.7918   4.57992   12.9924
V 21.5018   17.4499   12.9924
V 1.95503   19.2629   14.8037
V 1.66071   23.7864   19.3481
V 38.6646   38.2183   4.29632
V 38.6838   42.6786   8.57799
V 10.9545   14.9937   6.71996
V 27.6595   36.3022   10.6809
V 26.035   17.1678   16.9907
V 21.6765   4.03621   17.0314
V 20.7367   31.2895   16.2194
V 25.9683   42.807   12.7902
V 41.2741   14.6471   19.6935
V 38.7162   12.6121   4.42706
V 15.4169   40.7563   1.83333
V 6.34751   40.8601   6.54246
V 36.3596   6.26498   10.6391
V 36.3026   2.21302   14.8461
V 30.0247   0.0302502   8.40005
V 8.26926   38.5383   17.6382
V 18.6225   32.6743   18.9432
V 0.201927   12.9413   4.24951
V 40.6358   10.6221   15.0037
V 17.3149   34.3898   12.564
V 14.7183   32.0765   14.896
V 0.0201988   34.354   13.204
V 34.3233   34.076   13.0133
V 38.5935   38.5804   12.936
V 6.43198   10.7966   6.17872
V 16.9565   8.37798   4.0566
V 29.8488   13.1147   3.96626
V 16.9414   17.6144   0.29866
V 16.9912   12.8985   4.38465
V 10.7128   23.4564   1.94267
V 10.6656   2.1194   11.0458
V 1.27363   12.2309   20.9228
V 21.3793   12.7947   17.0146
V 6.26616   19.3335   19.3997
V 15.0415   23.7809   19.3766
V 13.1378   17.2144   17.3464
V 38.8778   4.34435   0.186356
V 3.92754   16.7022   8.75654
V 36.4997   28.017   15.3173
V 41.4676   24.2632   1.35967
V 36.5971   32.1415   19.3703
V 36.3422   27.9614   19.3609
V 42.7375   25.657   8.85922
V 36.4253   10.5093   19.1537
V 40.9161   6.5503   15.0289
V 19.1709   23.4339   2.60248
V 32.2457   32.4062   19.3513
V 41.0589   19.0923   2.25194
V 40.1977   32.1432   2.87271
V 42.8184   25.5445   16.9918
V 36.5262   23.7355   19.2243
V 19.5824   19.4414   1.80283
V 2.44885   19.0923   19.4119
V 26.0439   12.6573   12.9769
V 36.3379   6.40595   15.3791
V 6.49619   36.6055   2.0643
V 15.4622   19.4278   6.31385
V 4.04566   13.2447   16.7831
V 29.9618   13.2254   8.7673
V 40.5312   19.3385   19.2613
V 27.0927   20.114   14.0881
V 26.0209   12.5371   16.8042
V 32.0661   23.5029   15.362
V 29.8949   29.907   12.8189
V 25.5727   8.86504   8.58966
V 20.8417   21.2237   8.70765
V 36.7509   23.3028   15.1464
V 2.37136   14.3831   10.8002
V 10.7508   19.6687   6.71811
V 34.3407   42.9   12.7158
V 40.8148   14.7611   15.5442
V 26.1135   30.0026   9.39005
V 24.4118   24.7849   6.9801
V 21.2885   8.77216   12.7682
V 36.3775   10.711   14.8643
V 0.428545   17.0945   12.8817
V 32.4203   23.3511   19.2702
V 14.7884   19.2877   2.26787
V 6.7934   15.3801   2.4827
V 25.3537   4.10065   8.86193
V 36.6767   19.6406   19.1538
V 42.8006   38.6983   8.81891
V 29.9098   42.7872   21.3703
V 38.5044   38.5391   8.59524
V 6.97867   10.4125   19.5517
V 2.11658   36.3587   1.82928
V 38.2033   17.285   13.0136
V 25.9858   42.8856   4.17238
V 21.3148   4.1616   12.9803
V 1.79572   10.6409   6.43345
V 40.595   36.771   1.96712
V 28.0248   18.9443   10.4671
V 2.19919   1.92047   1.81278
V 1.48231   14.9165   1.73356
V 4.5774   29.7304   0.0925484
V 29.5438   0.00320753   12.7537
V 21.4919   0.175352   4.37731
V 42.7984   42.7311   17.2197
V 32.5246   27.2593   19.7819
V 30.2297   30.1135   0.0449589
V 42.2123   30.7903   0.460147
