972

Na 0   0   0
Na 4.29   0   0
Na 6.435   2.145   2.145
Na 10.725   2.145   2.145
Na 12.87   0   0
Na 15.015   2.145   2.145
Na 17.16   0   0
Na 19.305   2.145   2.145
Na 21.45   0   0
Na 23.595   2.145   2.145
Na 25.74   0   0
Na 27.885   2.145   2.145
Na 32.175   2.145   2.145
Na 34.32   0   0
Na 36.465   2.145   2.145
Na 38.61   0   0
Na 40.755   2.145   2.145
Na 0   4.29   0
Na 2.145   6.435   2.145
Na 4.29   4.29   0
Na 6.435   6.435   2.145
Na 8.58   4.29   0
Na 10.725   6.435   2.145
Na 12.87   4.29   0
Na 15.015   6.435   2.145
Na 17.16   4.29   0
Na 19.305   6.435   2.145
Na 21.45   4.29   0
Na 23.595   6.435   2.145
Na 25.74   4.29   0
Na 27.885   6.435   2.145
Na 30.03   4.29   0
Na 32.175   6.435   2.145
Na 34.32   4.29   0
Na 36.465   6.435   2.145
Na 40.755   6.435   2.145
Na 0   8.58   0
Na 2.145   10.725   2.145
Na 4.29   8.58   0
Na 6.435   10.725   2.145
Na 8.58   8.58   0
Na 10.725   10.725   2.145
Na 12.87   8.58   0
Na 15.015   10.725   2.145
Na 19.305   10.725   2.145
Na 21.45   8.58   0
Na 23.595   10.725   2.145
Na 25.74   8.58   0
Na 27.885   10.725   2.145
Na 30.03   8.58   0
Na 32.175   10.725   2.145
Na 34.32   8.58   0
Na 36.465   10.725   2.145
Na 38.61   8.58   0
Na 40.755   10.725   2.145
Na 8.58   12.87   0
Na 10.725   15.015   2.145
Na 12.87   12.87   0
Na 15.015   15.015   2.145
Na 17.16   12.87   0
Na 19.305   15.015   2.145
Na 21.45   12.87   0
Na 23.595   15.015   2.145
Na 27.885   15.015   2.145
Na 30.03   12.87   0
Na 34.32   12.87   0
Na 36.465   15.015   2.145
Na 38.61   12.87   0
Na 40.755   15.015   2.145
Na 2.145   19.305   2.145
Na 4.29   17.16   0
Na 8.58   17.16   0
Na 10.725   19.305   2.145
Na 12.87   17.16   0
Na 21.45   17.16   0
Na 23.595   19.305   2.145
Na 27.885   19.305   2.145
Na 30.03   17.16   0
Na 32.175   19.305   2.145
Na 38.61   17.16   0
Na 0   21.45   0
Na 2.145   23.595   2.145
Na 4.29   21.45   0
Na 6.435   23.595   2.145
Na 8.58   21.45   0
Na 12.87   21.45   0
Na 15.015   23.595   2.145
Na 21.45   21.45   0
Na 23.595   23.595   2.145
Na 25.74   21.45   0
Na 27.885   23.595   2.145
Na 32.175   23.595   2.145
Na 36.465   23.595   2.145
Na 38.61   21.45   0
Na 2.145   27.885   2.145
Na 4.29   25.74   0
Na 6.435   27.885   2.145
Na 8.58   25.74   0
Na 10.725   27.885   2.145
Na 12.87   25.74   0
Na 19.305   27.885   2.145
Na 21.45   25.74   0
Na 23.595   27.885   2.145
Na 25.74   25.74   0
Na 27.885   27.885   2.145
Na 30.03   25.74   0
Na 32.175   27.885   2.145
Na 34.32   25.74   0
Na 36.465   27.885   2.145
Na 38.61   25.74   0
Na 2.145   32.175   2.145
Na 8.58   30.03   0
Na 10.725   32.175   2.145
Na 12.87   30.03   0
Na 15.015   32.175   2.145
Na 17.16   30.03   0
Na 19.305   32.175   2.145
Na 27.885   32.175   2.145
Na 32.175   32.175   2.145
Na 34.32   30.03   0
Na 36.465   32.175   2.145
Na 38.61   30.03   0
Na 0   34.32   0
Na 4.29   34.32   0
Na 8.58   34.32   0
Na 10.725   36.465   2.145
Na 12.87   34.32   0
Na 15.015   36.465   2.145
Na 17.16   34.32   0
Na 19.305   36.465   2.145
Na 21.45   34.32   0
Na 23.595   36.465   2.145
Na 25.74   34.32   0
Na 27.885   36.465   2.145
Na 30.03   34.32   0
Na 32.175   36.465   2.145
Na 36.465   36.465   2.145
Na 38.61   34.32   0
Na 0   38.61   0
Na 2.145   40.755   2.145
Na 4.29   38.61   0
Na 6.435   40.755   2.145
Na 8.58   38.61   0
Na 10.725   40.755   2.145
Na 12.87   38.61   0
Na 17.16   38.61   0
Na 19.305   40.755   2.145
Na 21.45   38.61   0
Na 25.74   38.61   0
Na 27.885   40.755   2.145
Na 30.03   38.61   0
Na 32.175   40.755   2.145
Na 34.32   38.61   0
Na 36.465   40.755   2.145
Na 38.61   38.61   0
Na 40.755   40.755   2.145
Na 0   0   4.29
Na 4.29   0   4.29
Na 6.435   2.145   6.435
Na 8.58   0   4.29
Na 15.015   2.145   6.435
Na 17.16   0   4.29
Na 19.305   2.145   6.435
Na 23.595   2.145   6.435
Na 27.885   2.145   6.435
Na 30.03   0   4.29
Na 32.175   2.145   6.435
Na 34.32   0   4.29
Na 36.465   2.145   6.435
Na 38.61   0   4.29
Na 40.755   2.145   6.435
Na 2.145   6.435   6.435
Na 4.29   4.29   4.29
Na 6.435   6.435   6.435
Na 8.58   4.29   4.29
Na 10.725   6.435   6.435
Na 12.87   4.29   4.29
Na 15.015   6.435   6.435
Na 19.305   6.435   6.435
Na 21.45   4.29   4.29
Na 23.595   6.435   6.435
Na 25.74   4.29   4.29
Na 30.03   4.29   4.29
Na 32.175   6.435   6.435
Na 34.32   4.29   4.29
Na 36.465   6.435   6.435
Na 38.61   4.29   4.29
Na 40.755   6.435   6.435
Na 0   8.58   4.29
Na 4.29   8.58   4.29
Na 8.58   8.58   4.29
Na 10.725   10.725   6.435
Na 12.87   8.58   4.29
Na 15.015   10.725   6.435
Na 23.595   10.725   6.435
Na 25.74   8.58   4.29
Na 27.885   10.725   6.435
Na 30.03   8.58   4.29
Na 34.32   8.58   4.29
Na 36.465   10.725   6.435
Na 38.61   8.58   4.29
Na 40.755   10.725   6.435
Na 2.145   15.015   6.435
Na 6.435   15.015   6.435
Na 8.58   12.87   4.29
Na 12.87   12.87   4.29
Na 15.015   15.015   6.435
Na 19.305   15.015   6.435
Na 21.45   12.87   4.29
Na 23.595   15.015   6.435
Na 25.74   12.87   4.29
Na 27.885   15.015   6.435
Na 32.175   15.015   6.435
Na 34.32   12.87   4.29
Na 36.465   15.015   6.435
Na 40.755   15.015   6.435
Na 0   17.16   4.29
Na 4.29   17.16   4.29
Na 6.435   19.305   6.435
Na 12.87   17.16   4.29
Na 17.16   17.16   4.29
Na 19.305   19.305   6.435
Na 21.45   17.16   4.29
Na 25.74   17.16   4.29
Na 27.885   19.305   6.435
Na 30.03   17.16   4.29
Na 32.175   19.305   6.435
Na 34.32   17.16   4.29
Na 36.465   19.305   6.435
Na 38.61   17.16   4.29
Na 40.755   19.305   6.435
Na 0   21.45   4.29
Na 2.145   23.595   6.435
Na 4.29   21.45   4.29
Na 8.58   21.45   4.29
Na 10.725   23.595   6.435
Na 12.87   21.45   4.29
Na 19.305   23.595   6.435
Na 21.45   21.45   4.29
Na 25.74   21.45   4.29
Na 27.885   23.595   6.435
Na 30.03   21.45   4.29
Na 34.32   21.45   4.29
Na 40.755   23.595   6.435
Na 0   25.74   4.29
Na 4.29   25.74   4.29
Na 6.435   27.885   6.435
Na 8.58   25.74   4.29
Na 10.725   27.885   6.435
Na 12.87   25.74   4.29
Na 17.16   25.74   4.29
Na 19.305   27.885   6.435
Na 21.45   25.74   4.29
Na 23.595   27.885   6.435
Na 27.885   27.885   6.435
Na 30.03   25.74   4.29
Na 32.175   27.885   6.435
Na 34.32   25.74   4.29
Na 36.465   27.885   6.435
Na 40.755   27.885   6.435
Na 0   30.03   4.29
Na 2.145   32.175   6.435
Na 4.29   30.03   4.29
Na 8.58   30.03   4.29
Na 10.725   32.175   6.435
Na 12.87   30.03   4.29
Na 15.015   32.175   6.435
Na 17.16   30.03   4.29
Na 19.305   32.175   6.435
Na 21.45   30.03   4.29
Na 25.74   30.03   4.29
Na 30.03   30.03   4.29
Na 32.175   32.175   6.435
Na 34.32   30.03   4.29
Na 36.465   32.175   6.435
Na 38.61   30.03   4.29
Na 2.145   36.465   6.435
Na 4.29   34.32   4.29
Na 6.435   36.465   6.435
Na 8.58   34.32   4.29
Na 10.725   36.465   6.435
Na 12.87   34.32   4.29
Na 15.015   36.465   6.435
Na 17.16   34.32   4.29
Na 19.305   36.465   6.435
Na 21.45   34.32   4.29
Na 23.595   36.465   6.435
Na 27.885   36.465   6.435
Na 30.03   34.32   4.29
Na 32.175   36.465   6.435
Na 34.32   34.32   4.29
Na 36.465   36.465   6.435
Na 38.61   34.32   4.29
Na 40.755   36.465   6.435
Na 2.145   40.755   6.435
Na 4.29   38.61   4.29
Na 10.725   40.755   6.435
Na 12.87   38.61   4.29
Na 19.305   40.755   6.435
Na 21.45   38.61   4.29
Na 23.595   40.755   6.435
Na 25.74   38.61   4.29
Na 27.885   40.755   6.435
Na 30.03   38.61   4.29
Na 34.32   38.61   4.29
Na 36.465   40.755   6.435
Na 40.755   40.755   6.435
Na 0   0   8.58
Na 2.145   2.145   10.725
Na 4.29   0   8.58
Na 6.435   2.145   10.725
Na 8.58   0   8.58
Na 12.87   0   8.58
Na 17.16   0   8.58
Na 19.305   2.145   10.725
Na 21.45   0   8.58
Na 23.595   2.145   10.725
Na 25.74   0   8.58
Na 27.885   2.145   10.725
Na 32.175   2.145   10.725
Na 34.32   0   8.58
Na 36.465   2.145   10.725
Na 40.755   2.145   10.725
Na 0   4.29   8.58
Na 4.29   4.29   8.58
Na 6.435   6.435   10.725
Na 8.58   4.29   8.58
Na 10.725   6.435   10.725
Na 15.015   6.435   10.725
Na 17.16   4.29   8.58
Na 19.305   6.435   10.725
Na 21.45   4.29   8.58
Na 23.595   6.435   10.725
Na 27.885   6.435   10.725
Na 30.03   4.29   8.58
Na 32.175   6.435   10.725
Na 34.32   4.29   8.58
Na 38.61   4.29   8.58
Na 40.755   6.435   10.725
Na 0   8.58   8.58
Na 2.145   10.725   10.725
Na 6.435   10.725   10.725
Na 8.58   8.58   8.58
Na 10.725   10.725   10.725
Na 15.015   10.725   10.725
Na 17.16   8.58   8.58
Na 19.305   10.725   10.725
Na 21.45   8.58   8.58
Na 23.595   10.725   10.725
Na 27.885   10.725   10.725
Na 30.03   8.58   8.58
Na 32.175   10.725   10.725
Na 34.32   8.58   8.58
Na 36.465   10.725   10.725
Na 38.61   8.58   8.58
Na 40.755   10.725   10.725
Na 0   12.87   8.58
Na 6.435   15.015   10.725
Na 12.87   12.87   8.58
Na 15.015   15.015   10.725
Na 17.16   12.87   8.58
Na 19.305   15.015   10.725
Na 23.595   15.015   10.725
Na 25.74   12.87   8.58
Na 32.175   15.015   10.725
Na 36.465   15.015   10.725
Na 2.145   19.305   10.725
Na 6.435   19.305   10.725
Na 8.58   17.16   8.58
Na 10.725   19.305   10.725
Na 12.87   17.16   8.58
Na 15.015   19.305   10.725
Na 17.16   17.16   8.58
Na 19.305   19.305   10.725
Na 21.45   17.16   8.58
Na 23.595   19.305   10.725
Na 30.03   17.16   8.58
Na 34.32   17.16   8.58
Na 38.61   17.16   8.58
Na 40.755   19.305   10.725
Na 4.29   21.45   8.58
Na 6.435   23.595   10.725
Na 8.58   21.45   8.58
Na 10.725   23.595   10.725
Na 12.87   21.45   8.58
Na 15.015   23.595   10.725
Na 17.16   21.45   8.58
Na 19.305   23.595   10.725
Na 23.595   23.595   10.725
Na 30.03   21.45   8.58
Na 32.175   23.595   10.725
Na 34.32   21.45   8.58
Na 36.465   23.595   10.725
Na 38.61   21.45   8.58
Na 40.755   23.595   10.725
Na 2.145   27.885   10.725
Na 6.435   27.885   10.725
Na 8.58   25.74   8.58
Na 10.725   27.885   10.725
Na 12.87   25.74   8.58
Na 15.015   27.885   10.725
Na 17.16   25.74   8.58
Na 19.305   27.885   10.725
Na 21.45   25.74   8.58
Na 27.885   27.885   10.725
Na 30.03   25.74   8.58
Na 32.175   27.885   10.725
Na 34.32   25.74   8.58
Na 36.465   27.885   10.725
Na 40.755   27.885   10.725
Na 0   30.03   8.58
Na 4.29   30.03   8.58
Na 6.435   32.175   10.725
Na 8.58   30.03   8.58
Na 10.725   32.175   10.725
Na 12.87   30.03   8.58
Na 15.015   32.175   10.725
Na 19.305   32.175   10.725
Na 21.45   30.03   8.58
Na 23.595   32.175   10.725
Na 27.885   32.175   10.725
Na 32.175   32.175   10.725
Na 36.465   32.175   10.725
Na 38.61   30.03   8.58
Na 40.755   32.175   10.725
Na 0   34.32   8.58
Na 2.145   36.465   10.725
Na 4.29   34.32   8.58
Na 6.435   36.465   10.725
Na 8.58   34.32   8.58
Na 15.015   36.465   10.725
Na 17.16   34.32   8.58
Na 19.305   36.465   10.725
Na 21.45   34.32   8.58
Na 25.74   34.32   8.58
Na 30.03   34.32   8.58
Na 32.175   36.465   10.725
Na 34.32   34.32   8.58
Na 36.465   36.465   10.725
Na 38.61   34.32   8.58
Na 40.755   36.465   10.725
Na 2.145   40.755   10.725
Na 4.29   38.61   8.58
Na 6.435   40.755   10.725
Na 8.58   38.61   8.58
Na 10.725   40.755   10.725
Na 12.87   38.61   8.58
Na 15.015   40.755   10.725
Na 17.16   38.61   8.58
Na 21.45   38.61   8.58
Na 23.595   40.755   10.725
Na 25.74   38.61   8.58
Na 27.885   40.755   10.725
Na 30.03   38.61   8.58
Na 32.175   40.755   10.725
Na 36.465   40.755   10.725
Na 40.755   40.755   10.725
Na 0   0   12.87
Na 6.435   2.145   15.015
Na 10.725   2.145   15.015
Na 12.87   0   12.87
Na 15.015   2.145   15.015
Na 17.16   0   12.87
Na 19.305   2.145   15.015
Na 21.45   0   12.87
Na 23.595   2.145   15.015
Na 27.885   2.145   15.015
Na 38.61   0   12.87
Na 40.755   2.145   15.015
Na 0   4.29   12.87
Na 2.145   6.435   15.015
Na 4.29   4.29   12.87
Na 8.58   4.29   12.87
Na 12.87   4.29   12.87
Na 15.015   6.435   15.015
Na 17.16   4.29   12.87
Na 19.305   6.435   15.015
Na 27.885   6.435   15.015
Na 30.03   4.29   12.87
Na 32.175   6.435   15.015
Na 34.32   4.29   12.87
Na 0   8.58   12.87
Na 2.145   10.725   15.015
Na 4.29   8.58   12.87
Na 6.435   10.725   15.015
Na 10.725   10.725   15.015
Na 12.87   8.58   12.87
Na 15.015   10.725   15.015
Na 17.16   8.58   12.87
Na 19.305   10.725   15.015
Na 23.595   10.725   15.015
Na 25.74   8.58   12.87
Na 27.885   10.725   15.015
Na 30.03   8.58   12.87
Na 32.175   10.725   15.015
Na 38.61   8.58   12.87
Na 0   12.87   12.87
Na 2.145   15.015   15.015
Na 4.29   12.87   12.87
Na 6.435   15.015   15.015
Na 8.58   12.87   12.87
Na 10.725   15.015   15.015
Na 12.87   12.87   12.87
Na 15.015   15.015   15.015
Na 17.16   12.87   12.87
Na 21.45   12.87   12.87
Na 23.595   15.015   15.015
Na 27.885   15.015   15.015
Na 32.175   15.015   15.015
Na 36.465   15.015   15.015
Na 38.61   12.87   12.87
Na 4.29   17.16   12.87
Na 6.435   19.305   15.015
Na 8.58   17.16   12.87
Na 10.725   19.305   15.015
Na 15.015   19.305   15.015
Na 17.16   17.16   12.87
Na 19.305   19.305   15.015
Na 23.595   19.305   15.015
Na 25.74   17.16   12.87
Na 32.175   19.305   15.015
Na 36.465   19.305   15.015
Na 40.755   19.305   15.015
Na 0   21.45   12.87
Na 2.145   23.595   15.015
Na 4.29   21.45   12.87
Na 6.435   23.595   15.015
Na 8.58   21.45   12.87
Na 10.725   23.595   15.015
Na 12.87   21.45   12.87
Na 15.015   23.595   15.015
Na 17.16   21.45   12.87
Na 19.305   23.595   15.015
Na 23.595   23.595   15.015
Na 27.885   23.595   15.015
Na 30.03   21.45   12.87
Na 34.32   21.45   12.87
Na 38.61   21.45   12.87
Na 40.755   23.595   15.015
Na 0   25.74   12.87
Na 2.145   27.885   15.015
Na 4.29   25.74   12.87
Na 6.435   27.885   15.015
Na 8.58   25.74   12.87
Na 10.725   27.885   15.015
Na 12.87   25.74   12.87
Na 15.015   27.885   15.015
Na 17.16   25.74   12.87
Na 19.305   27.885   15.015
Na 23.595   27.885   15.015
Na 25.74   25.74   12.87
Na 27.885   27.885   15.015
Na 32.175   27.885   15.015
Na 38.61   25.74   12.87
Na 40.755   27.885   15.015
Na 0   30.03   12.87
Na 2.145   32.175   15.015
Na 4.29   30.03   12.87
Na 6.435   32.175   15.015
Na 8.58   30.03   12.87
Na 10.725   32.175   15.015
Na 12.87   30.03   12.87
Na 17.16   30.03   12.87
Na 21.45   30.03   12.87
Na 23.595   32.175   15.015
Na 25.74   30.03   12.87
Na 32.175   32.175   15.015
Na 34.32   30.03   12.87
Na 40.755   32.175   15.015
Na 2.145   36.465   15.015
Na 4.29   34.32   12.87
Na 6.435   36.465   15.015
Na 8.58   34.32   12.87
Na 12.87   34.32   12.87
Na 15.015   36.465   15.015
Na 19.305   36.465   15.015
Na 21.45   34.32   12.87
Na 23.595   36.465   15.015
Na 25.74   34.32   12.87
Na 27.885   36.465   15.015
Na 30.03   34.32   12.87
Na 32.175   36.465   15.015
Na 36.465   36.465   15.015
Na 38.61   34.32   12.87
Na 40.755   36.465   15.015
Na 0   38.61   12.87
Na 2.145   40.755   15.015
Na 4.29   38.61   12.87
Na 6.435   40.755   15.015
Na 10.725   40.755   15.015
Na 12.87   38.61   12.87
Na 15.015   40.755   15.015
Na 19.305   40.755   15.015
Na 21.45   38.61   12.87
Na 23.595   40.755   15.015
Na 25.74   38.61   12.87
Na 27.885   40.755   15.015
Na 30.03   38.61   12.87
Na 32.175   40.755   15.015
Na 34.32   38.61   12.87
Na 36.465   40.755   15.015
Na 40.755   40.755   15.015
Na 2.145   2.145   19.305
Na 4.29   0   17.16
Na 6.435   2.145   19.305
Na 8.58   0   17.16
Na 12.87   0   17.16
Na 15.015   2.145   19.305
Na 17.16   0   17.16
Na 21.45   0   17.16
Na 23.595   2.145   19.305
Na 25.74   0   17.16
Na 27.885   2.145   19.305
Na 30.03   0   17.16
Na 34.32   0   17.16
Na 36.465   2.145   19.305
Na 40.755   2.145   19.305
Na 0   4.29   17.16
Na 2.145   6.435   19.305
Na 4.29   4.29   17.16
Na 6.435   6.435   19.305
Na 8.58   4.29   17.16
Na 12.87   4.29   17.16
Na 15.015   6.435   19.305
Na 17.16   4.29   17.16
Na 19.305   6.435   19.305
Na 23.595   6.435   19.305
Na 25.74   4.29   17.16
Na 32.175   6.435   19.305
Na 34.32   4.29   17.16
Na 36.465   6.435   19.305
Na 38.61   4.29   17.16
Na 40.755   6.435   19.305
Na 0   8.58   17.16
Na 4.29   8.58   17.16
Na 8.58   8.58   17.16
Na 10.725   10.725   19.305
Na 12.87   8.58   17.16
Na 15.015   10.725   19.305
Na 17.16   8.58   17.16
Na 19.305   10.725   19.305
Na 23.595   10.725   19.305
Na 25.74   8.58   17.16
Na 27.885   10.725   19.305
Na 30.03   8.58   17.16
Na 34.32   8.58   17.16
Na 38.61   8.58   17.16
Na 40.755   10.725   19.305
Na 0   12.87   17.16
Na 2.145   15.015   19.305
Na 6.435   15.015   19.305
Na 8.58   12.87   17.16
Na 10.725   15.015   19.305
Na 12.87   12.87   17.16
Na 15.015   15.015   19.305
Na 17.16   12.87   17.16
Na 19.305   15.015   19.305
Na 27.885   15.015   19.305
Na 30.03   12.87   17.16
Na 34.32   12.87   17.16
Na 36.465   15.015   19.305
Na 38.61   12.87   17.16
Na 0   17.16   17.16
Na 4.29   17.16   17.16
Na 8.58   17.16   17.16
Na 15.015   19.305   19.305
Na 17.16   17.16   17.16
Na 19.305   19.305   19.305
Na 21.45   17.16   17.16
Na 23.595   19.305   19.305
Na 27.885   19.305   19.305
Na 30.03   17.16   17.16
Na 32.175   19.305   19.305
Na 34.32   17.16   17.16
Na 38.61   17.16   17.16
Na 0   21.45   17.16
Na 4.29   21.45   17.16
Na 6.435   23.595   19.305
Na 8.58   21.45   17.16
Na 10.725   23.595   19.305
Na 12.87   21.45   17.16
Na 17.16   21.45   17.16
Na 19.305   23.595   19.305
Na 21.45   21.45   17.16
Na 23.595   23.595   19.305
Na 25.74   21.45   17.16
Na 30.03   21.45   17.16
Na 34.32   21.45   17.16
Na 38.61   21.45   17.16
Na 40.755   23.595   19.305
Na 2.145   27.885   19.305
Na 4.29   25.74   17.16
Na 6.435   27.885   19.305
Na 8.58   25.74   17.16
Na 10.725   27.885   19.305
Na 12.87   25.74   17.16
Na 15.015   27.885   19.305
Na 17.16   25.74   17.16
Na 21.45   25.74   17.16
Na 23.595   27.885   19.305
Na 27.885   27.885   19.305
Na 30.03   25.74   17.16
Na 34.32   25.74   17.16
Na 38.61   25.74   17.16
Na 40.755   27.885   19.305
Na 0   30.03   17.16
Na 4.29   30.03   17.16
Na 6.435   32.175   19.305
Na 8.58   30.03   17.16
Na 10.725   32.175   19.305
Na 12.87   30.03   17.16
Na 15.015   32.175   19.305
Na 17.16   30.03   17.16
Na 23.595   32.175   19.305
Na 25.74   30.03   17.16
Na 27.885   32.175   19.305
Na 38.61   30.03   17.16
Na 40.755   32.175   19.305
Na 0   34.32   17.16
Na 2.145   36.465   19.305
Na 4.29   34.32   17.16
Na 6.435   36.465   19.305
Na 10.725   36.465   19.305
Na 12.87   34.32   17.16
Na 15.015   36.465   19.305
Na 21.45   34.32   17.16
Na 23.595   36.465   19.305
Na 27.885   36.465   19.305
Na 30.03   34.32   17.16
Na 32.175   36.465   19.305
Na 34.32   34.32   17.16
Na 36.465   36.465   19.305
Na 38.61   34.32   17.16
Na 40.755   36.465   19.305
Na 0   38.61   17.16
Na 4.29   38.61   17.16
Na 6.435   40.755   19.305
Na 12.87   38.61   17.16
Na 15.015   40.755   19.305
Na 17.16   38.61   17.16
Na 19.305   40.755   19.305
Na 21.45   38.61   17.16
Na 23.595   40.755   19.305
Na 27.885   40.755   19.305
Na 30.03   38.61   17.16
Na 32.175   40.755   19.305
Na 34.32   38.61   17.16
Na 36.465   40.755   19.305
Na 38.61   38.61   17.16
Na 40.755   40.755   19.305
V 34.4741   29.9605   17.5006
V 26.8871   21.4226   10.7356
V 38.6952   20.9609   3.9304
V 30.7562   29.9925   18.2293
V 38.0758   30.0008   13.1622
V 8.25249   16.8857   3.88048
V 1.93337   19.1173   6.7884
V 10.5033   14.9034   6.42591
V 17.5691   21.1015   3.4596
V 24.0094   14.6799   18.8747
V 34.5099   21.8287   21.1098
V 41.0841   16.0621   12.9108
V 34.773   25.4627   13.3709
V 34.5812   34.045   13.312
V 38.6106   4.59384   13.2049
V 34.1108   33.8508   21.0248
V 19.0148   10.6551   6.09102
V 0.00612215   36.1586   3.35136
V 15.0996   23.5427   6.51606
V 28.0731   14.6495   11.2296
V 1.71661   23.7822   10.2901
V 23.1526   6.11973   14.7815
V 32.2276   1.76233   14.4616
V 35.0724   17.9222   21.4311
V 2.06441   31.7573   19.9506
V 23.5654   21.6261   7.54159
V 10.4826   6.44056   19.2372
V 42.2606   29.9779   0.463347
V 29.966   25.3743   12.7247
V 42.3104   17.3283   21.0914
V 30.0215   21.9689   20.909
V 20.3938   30.1274   18.873
V 12.5087   3.94309   8.75386
V 17.455   34.2869   17.2954
V 38.9124   38.3009   4.06562
V 28.5089   31.7536   15.1826
V 27.9575   31.6676   6.82489
V 36.6704   23.6666   6.06102
V 21.6407   8.69866   4.28102
V 16.3151   18.7442   1.25224
V 2.2185   27.341   6.70373
V 25.4569   33.9698   4.62955
V 23.4957   41.2742   2.62574
V 15.1111   2.36023   10.6244
V 27.4918   6.63724   6.889
V 31.8945   11.0446   6.57438
V 6.24954   23.788   6.6945
V 32.3134   23.4661   6.3023
V 23.8836   27.9148   10.5882
V 10.6703   14.8761   10.5649
V 34.934   8.31773   13.4273
V 19.3871   15.028   15.0301
V 29.9733   17.6911   12.5474
V 27.6408   24.13   19.051
V 21.319   4.22908   17.3618
V 15.5555   23.7725   19.8343
V 32.1796   15.1546   2.04767
V 4.61202   25.7308   8.91474
V 8.56052   8.47964   13.2271
V 10.3587   36.6008   15.0905
V 10.9664   19.2333   19.1469
V 39.0608   25.5588   4.00794
V 13.3208   42.7188   4.00794
V 34.5694   17.5204   12.3617
V 41.0058   32.5183   6.15043
V 31.916   2.10715   19.1424
V 1.80644   15.3504   10.7567
V 4.1825   11.8779   19.3112
V 23.8001   31.7137   1.84656
V 4.27527   17.3025   8.5369
V 8.66525   0.139651   12.5628
V 1.98051   32.1844   10.8469
V 17.1509   33.9945   13.1338
V 17.3332   38.8076   12.7751
V 32.262   15.2307   19.3203
V 19.3768   36.3119   19.3912
V 10.4627   40.9368   19.1963
V 38.4646   25.5487   8.59051
V 34.4355   29.979   8.44231
V 8.69551   38.559   12.7323
V 32.2591   40.5389   6.50324
V 38.8466   12.8905   8.6759
V 12.7144   34.5594   8.58852
V 29.8663   42.8419   8.42531
V 28.2861   5.96074   18.9776
V 26.1907   33.9947   16.9313
V 10.7658   2.0972   6.05578
V 17.1084   4.43912   4.1212
V 25.5746   4.06364   8.47762
V 4.21721   11.1242   7.37282
V 5.44997   14.2259   2.14388
V 30.3135   12.9183   4.31657
V 15.1097   19.4096   6.31963
V 26.1769   17.4004   8.85143
V 25.7009   25.6245   4.4334
V 16.7381   39.139   4.4416
V 2.49846   6.71004   10.3584
V 13.0824   8.42404   8.61471
V 10.6467   19.3164   6.17367
V 25.8769   25.4809   8.52961
V 6.46259   32.5291   6.35512
V 14.9747   28.0652   6.47089
V 6.26239   6.38916   15.3124
V 21.3613   8.51777   17.1929
V 21.2568   13.0498   8.47305
V 21.3408   25.8825   12.6925
V 10.2785   1.79283   19.9283
V 19.0819   2.16422   19.3629
V 19.6532   31.8939   15.1626
V 32.1427   10.6058   19.261
V 6.37391   19.5223   19.3358
V 8.04012   12.6805   8.36504
V 17.0621   30.0102   8.67777
V 30.2301   29.8983   8.75027
V 12.813   17.3179   12.6107
V 25.5445   38.6691   17.2767
V 30.1264   42.6995   21.3534
V 8.22199   38.652   4.12401
V 42.4561   16.8455   8.59134
V 19.5291   40.7375   10.5936
V 17.2657   8.57633   0.0031623
V 25.7934   0.113286   4.41757
V 6.44048   40.4705   6.21116
V 10.7305   36.1805   10.5012
V 3.85081   0.0421292   13.154
V 34.5124   12.5212   13.2214
V 23.7513   36.5296   10.682
V 1.94644   40.7531   19.1462
V 36.4423   10.6294   19.1172
V 24.1746   31.5718   6.89142
V 1.94382   23.8812   19.4621
V 38.4164   0.264199   17.1895
V 0.205381   3.92165   4.2979
V 2.28503   2.27925   6.44441
V 38.5087   42.7565   8.62914
V 8.6044   34.5387   17.0012
V 36.3064   1.94034   14.7065
V 38.6007   38.7494   8.69698
V 1.60823   14.6111   1.74387
V 17.205   8.45197   4.29067
V 6.40588   32.1882   1.92795
V 15.2384   27.7972   1.90299
V 40.8276   33.007   2.3416
V 25.7269   4.08289   12.809
V 1.90583   2.20596   15.4341
V 21.2966   8.58878   13.111
V 21.6272   17.2641   12.8745
V 21.6272   21.5541   12.8745
V 15.182   32.1659   15.3403
V 10.8251   6.48163   15.0057
V 13.0605   17.1508   17.1925
V 18.6295   27.0423   19.9347
V 14.797   40.8481   6.61525
V 28.2308   36.5929   10.6437
V 34.3504   38.6748   8.93257
V 40.9305   10.7784   14.7894
V 38.6117   12.8255   4.32005
V 34.5583   12.6769   8.49182
V 42.851   12.4344   4.51828
V 36.6401   6.4478   10.5866
V 32.2016   19.6164   10.5511
V 8.25117   38.6189   17.2849
V 38.5607   38.4899   12.8928
V 40.9441   14.6943   19.171
V 4.2833   12.3563   4.61781
V 41.0034   6.52962   15.0421
V 30.0871   30.0645   12.6913
V 0.232544   34.3297   12.9945
V 17.0432   13.3192   4.1005
V 10.818   23.5284   2.1338
V 10.4556   2.17397   10.8575
V 21.459   12.5205   16.94
V 1.32916   11.9701   20.4886
V 25.8778   0.00595774   12.8568
V 30.3982   4.03866   16.6458
V 30.1335   12.6022   12.9362
V 25.805   17.0789   21.3133
V 36.7399   32.2184   19.1916
V 32.1312   23.6828   15.255
V 6.34567   19.3518   1.98364
V 42.4021   25.6456   0.461012
V 36.5625   27.7329   19.2874
V 36.6851   19.5384   10.7752
V 25.8755   30.0631   21.0397
V 36.9183   10.4404   15.3051
V 36.328   27.8688   15.0313
V 27.4121   19.376   15.1983
V 1.82903   19.2785   19.3392
V 25.8198   12.7257   12.7615
V 42.7999   25.6704   17.4023
V 40.6658   19.4683   18.8791
V 4.43475   29.9079   21.232
V 19.5214   23.9205   2.57045
V 0.0286578   21.3625   8.56289
V 25.67   17.206   17.2979
V 38.359   4.55691   21.0839
V 8.50469   42.5423   0.472406
V 29.7767   12.8301   8.6121
V 42.6342   25.8129   8.43754
V 2.2538   19.3959   14.6948
V 36.5393   23.5622   19.4262
V 32.3946   23.8653   19.1089
V 41.1093   19.0805   2.08195
V 36.7455   23.2195   15.3713
V 40.7667   23.0327   2.32521
V 36.4665   19.5534   19.1584
V 30.2676   29.6928   0.108589
V 21.1676   3.89392   12.6543
V 6.15261   36.0689   1.92934
V 25.4555   26.0012   17.1136
V 36.4752   32.2266   15.4802
V 14.9978   40.7279   2.03256
V 42.8788   38.7221   8.5906
V 25.8392   12.8093   0.160594
V 26.0925   12.5358   16.724
V 25.4321   8.66383   8.6395
V 42.5562   0.330202   17.2463
V 2.36325   2.47654   1.6995
V 34.5254   42.6171   12.4339
V 21.1127   0.190521   4.34831
V 30.0682   42.6455   12.3608
V 17.4387   21.5594   0.0155354
