998

Na 0   0   0
Na 4.29   0   0
Na 6.435   2.145   2.145
Na 8.58   0   0
Na 10.725   2.145   2.145
Na 12.87   0   0
Na 21.45   0   0
Na 23.595   2.145   2.145
Na 30.03   0   0
Na 32.175   2.145   2.145
Na 34.32   0   0
Na 36.465   2.145   2.145
Na 38.61   0   0
Na 40.755   2.145   2.145
Na 0   4.29   0
Na 2.145   6.435   2.145
Na 4.29   4.29   0
Na 8.58   4.29   0
Na 15.015   6.435   2.145
Na 17.16   4.29   0
Na 19.305   6.435   2.145
Na 21.45   4.29   0
Na 23.595   6.435   2.145
Na 25.74   4.29   0
Na 27.885   6.435   2.145
Na 30.03   4.29   0
Na 32.175   6.435   2.145
Na 34.32   4.29   0
Na 36.465   6.435   2.145
Na 38.61   4.29   0
Na 40.755   6.435   2.145
Na 0   8.58   0
Na 2.145   10.725   2.145
Na 6.435   10.725   2.145
Na 8.58   8.58   0
Na 10.725   10.725   2.145
Na 12.87   8.58   0
Na 17.16   8.58   0
Na 19.305   10.725   2.145
Na 23.595   10.725   2.145
Na 25.74   8.58   0
Na 30.03   8.58   0
Na 32.175   10.725   2.145
Na 34.32   8.58   0
Na 36.465   10.725   2.145
Na 38.61   8.58   0
Na 40.755   10.725   2.145
Na 0   12.87   0
Na 2.145   15.015   2.145
Na 4.29   12.87   0
Na 6.435   15.015   2.145
Na 8.58   12.87   0
Na 10.725   15.015   2.145
Na 15.015   15.015   2.145
Na 21.45   12.87   0
Na 25.74   12.87   0
Na 27.885   15.015   2.145
Na 30.03   12.87   0
Na 32.175   15.015   2.145
Na 34.32   12.87   0
Na 36.465   15.015   2.145
Na 38.61   12.87   0
Na 40.755   15.015   2.145
Na 0   17.16   0
Na 2.145   19.305   2.145
Na 4.29   17.16   0
Na 8.58   17.16   0
Na 10.725   19.305   2.145
Na 12.87   17.16   0
Na 15.015   19.305   2.145
Na 17.16   17.16   0
Na 19.305   19.305   2.145
Na 21.45   17.16   0
Na 23.595   19.305   2.145
Na 25.74   17.16   0
Na 27.885   19.305   2.145
Na 30.03   17.16   0
Na 32.175   19.305   2.145
Na 34.32   17.16   0
Na 36.465   19.305   2.145
Na 40.755   19.305   2.145
Na 0   21.45   0
Na 2.145   23.595   2.145
Na 4.29   21.45   0
Na 6.435   23.595   2.145
Na 8.58   21.45   0
Na 10.725   23.595   2.145
Na 15.015   23.595   2.145
Na 17.16   21.45   0
Na 23.595   23.595   2.145
Na 27.885   23.595   2.145
Na 30.03   21.45   0
Na 32.175   23.595   2.145
Na 34.32   21.45   0
Na 36.465   23.595   2.145
Na 40.755   23.595   2.145
Na 0   25.74   0
Na 2.145   27.885   2.145
Na 4.29   25.74   0
Na 6.435   27.885   2.145
Na 8.58   25.74   0
Na 10.725   27.885   2.145
Na 12.87   25.74   0
Na 15.015   27.885   2.145
Na 17.16   25.74   0
Na 19.305   27.885   2.145
Na 23.595   27.885   2.145
Na 25.74   25.74   0
Na 30.03   25.74   0
Na 32.175   27.885   2.145
Na 34.32   25.74   0
Na 36.465   27.885   2.145
Na 40.755   27.885   2.145
Na 0   30.03   0
Na 2.145   32.175   2.145
Na 4.29   30.03   0
Na 8.58   30.03   0
Na 10.725   32.175   2.145
Na 19.305   32.175   2.145
Na 21.45   30.03   0
Na 27.885   32.175   2.145
Na 30.03   30.03   0
Na 34.32   30.03   0
Na 36.465   32.175   2.145
Na 38.61   30.03   0
Na 40.755   32.175   2.145
Na 2.145   36.465   2.145
Na 4.29   34.32   0
Na 6.435   36.465   2.145
Na 8.58   34.32   0
Na 15.015   36.465   2.145
Na 19.305   36.465   2.145
Na 23.595   36.465   2.145
Na 25.74   34.32   0
Na 27.885   36.465   2.145
Na 30.03   34.32   0
Na 32.175   36.465   2.145
Na 34.32   34.32   0
Na 36.465   36.465   2.145
Na 38.61   34.32   0
Na 40.755   36.465   2.145
Na 0   38.61   0
Na 2.145   40.755   2.145
Na 4.29   38.61   0
Na 6.435   40.755   2.145
Na 8.58   38.61   0
Na 10.725   40.755   2.145
Na 12.87   38.61   0
Na 15.015   40.755   2.145
Na 17.16   38.61   0
Na 19.305   40.755   2.145
Na 21.45   38.61   0
Na 23.595   40.755   2.145
Na 25.74   38.61   0
Na 27.885   40.755   2.145
Na 30.03   38.61   0
Na 32.175   40.755   2.145
Na 34.32   38.61   0
Na 38.61   38.61   0
Na 0   0   4.29
Na 4.29   0   4.29
Na 12.87   0   4.29
Na 17.16   0   4.29
Na 21.45   0   4.29
Na 23.595   2.145   6.435
Na 25.74   0   4.29
Na 27.885   2.145   6.435
Na 34.32   0   4.29
Na 36.465   2.145   6.435
Na 38.61   0   4.29
Na 0   4.29   4.29
Na 2.145   6.435   6.435
Na 4.29   4.29   4.29
Na 6.435   6.435   6.435
Na 8.58   4.29   4.29
Na 10.725   6.435   6.435
Na 12.87   4.29   4.29
Na 15.015   6.435   6.435
Na 19.305   6.435   6.435
Na 23.595   6.435   6.435
Na 25.74   4.29   4.29
Na 27.885   6.435   6.435
Na 30.03   4.29   4.29
Na 32.175   6.435   6.435
Na 34.32   4.29   4.29
Na 36.465   6.435   6.435
Na 0   8.58   4.29
Na 2.145   10.725   6.435
Na 6.435   10.725   6.435
Na 8.58   8.58   4.29
Na 12.87   8.58   4.29
Na 15.015   10.725   6.435
Na 17.16   8.58   4.29
Na 19.305   10.725   6.435
Na 21.45   8.58   4.29
Na 23.595   10.725   6.435
Na 25.74   8.58   4.29
Na 27.885   10.725   6.435
Na 30.03   8.58   4.29
Na 32.175   10.725   6.435
Na 34.32   8.58   4.29
Na 36.465   10.725   6.435
Na 38.61   8.58   4.29
Na 40.755   10.725   6.435
Na 4.29   12.87   4.29
Na 6.435   15.015   6.435
Na 8.58   12.87   4.29
Na 10.725   15.015   6.435
Na 17.16   12.87   4.29
Na 23.595   15.015   6.435
Na 27.885   15.015   6.435
Na 34.32   12.87   4.29
Na 36.465   15.015   6.435
Na 40.755   15.015   6.435
Na 0   17.16   4.29
Na 2.145   19.305   6.435
Na 6.435   19.305   6.435
Na 10.725   19.305   6.435
Na 12.87   17.16   4.29
Na 15.015   19.305   6.435
Na 17.16   17.16   4.29
Na 19.305   19.305   6.435
Na 23.595   19.305   6.435
Na 25.74   17.16   4.29
Na 27.885   19.305   6.435
Na 30.03   17.16   4.29
Na 34.32   17.16   4.29
Na 36.465   19.305   6.435
Na 38.61   17.16   4.29
Na 40.755   19.305   6.435
Na 4.29   21.45   4.29
Na 6.435   23.595   6.435
Na 8.58   21.45   4.29
Na 17.16   21.45   4.29
Na 19.305   23.595   6.435
Na 21.45   21.45   4.29
Na 23.595   23.595   6.435
Na 25.74   21.45   4.29
Na 27.885   23.595   6.435
Na 32.175   23.595   6.435
Na 38.61   21.45   4.29
Na 40.755   23.595   6.435
Na 0   25.74   4.29
Na 2.145   27.885   6.435
Na 4.29   25.74   4.29
Na 6.435   27.885   6.435
Na 8.58   25.74   4.29
Na 12.87   25.74   4.29
Na 15.015   27.885   6.435
Na 17.16   25.74   4.29
Na 21.45   25.74   4.29
Na 23.595   27.885   6.435
Na 32.175   27.885   6.435
Na 34.32   25.74   4.29
Na 38.61   25.74   4.29
Na 40.755   27.885   6.435
Na 0   30.03   4.29
Na 4.29   30.03   4.29
Na 6.435   32.175   6.435
Na 8.58   30.03   4.29
Na 10.725   32.175   6.435
Na 12.87   30.03   4.29
Na 15.015   32.175   6.435
Na 17.16   30.03   4.29
Na 19.305   32.175   6.435
Na 21.45   30.03   4.29
Na 25.74   30.03   4.29
Na 27.885   32.175   6.435
Na 32.175   32.175   6.435
Na 34.32   30.03   4.29
Na 36.465   32.175   6.435
Na 38.61   30.03   4.29
Na 40.755   32.175   6.435
Na 2.145   36.465   6.435
Na 4.29   34.32   4.29
Na 6.435   36.465   6.435
Na 8.58   34.32   4.29
Na 15.015   36.465   6.435
Na 17.16   34.32   4.29
Na 19.305   36.465   6.435
Na 21.45   34.32   4.29
Na 25.74   34.32   4.29
Na 27.885   36.465   6.435
Na 30.03   34.32   4.29
Na 32.175   36.465   6.435
Na 34.32   34.32   4.29
Na 36.465   36.465   6.435
Na 40.755   36.465   6.435
Na 2.145   40.755   6.435
Na 4.29   38.61   4.29
Na 6.435   40.755   6.435
Na 12.87   38.61   4.29
Na 19.305   40.755   6.435
Na 21.45   38.61   4.29
Na 23.595   40.755   6.435
Na 27.885   40.755   6.435
Na 30.03   38.61   4.29
Na 34.32   38.61   4.29
Na 36.465   40.755   6.435
Na 38.61   38.61   4.29
Na 40.755   40.755   6.435
Na 0   0   8.58
Na 2.145   2.145   10.725
Na 4.29   0   8.58
Na 12.87   0   8.58
Na 15.015   2.145   10.725
Na 17.16   0   8.58
Na 19.305   2.145   10.725
Na 21.45   0   8.58
Na 23.595   2.145   10.725
Na 25.74   0   8.58
Na 27.885   2.145   10.725
Na 30.03   0   8.58
Na 32.175   2.145   10.725
Na 34.32   0   8.58
Na 36.465   2.145   10.725
Na 38.61   0   8.58
Na 4.29   4.29   8.58
Na 6.435   6.435   10.725
Na 8.58   4.29   8.58
Na 10.725   6.435   10.725
Na 12.87   4.29   8.58
Na 19.305   6.435   10.725
Na 21.45   4.29   8.58
Na 23.595   6.435   10.725
Na 27.885   6.435   10.725
Na 30.03   4.29   8.58
Na 34.32   4.29   8.58
Na 36.465   6.435   10.725
Na 40.755   6.435   10.725
Na 2.145   10.725   10.725
Na 4.29   8.58   8.58
Na 6.435   10.725   10.725
Na 8.58   8.58   8.58
Na 15.015   10.725   10.725
Na 17.16   8.58   8.58
Na 19.305   10.725   10.725
Na 21.45   8.58   8.58
Na 23.595   10.725   10.725
Na 25.74   8.58   8.58
Na 27.885   10.725   10.725
Na 30.03   8.58   8.58
Na 32.175   10.725   10.725
Na 36.465   10.725   10.725
Na 38.61   8.58   8.58
Na 40.755   10.725   10.725
Na 0   12.87   8.58
Na 2.145   15.015   10.725
Na 4.29   12.87   8.58
Na 10.725   15.015   10.725
Na 12.87   12.87   8.58
Na 15.015   15.015   10.725
Na 19.305   15.015   10.725
Na 23.595   15.015   10.725
Na 25.74   12.87   8.58
Na 30.03   12.87   8.58
Na 32.175   15.015   10.725
Na 34.32   12.87   8.58
Na 36.465   15.015   10.725
Na 40.755   15.015   10.725
Na 0   17.16   8.58
Na 2.145   19.305   10.725
Na 6.435   19.305   10.725
Na 8.58   17.16   8.58
Na 10.725   19.305   10.725
Na 15.015   19.305   10.725
Na 17.16   17.16   8.58
Na 19.305   19.305   10.725
Na 21.45   17.16   8.58
Na 23.595   19.305   10.725
Na 25.74   17.16   8.58
Na 27.885   19.305   10.725
Na 30.03   17.16   8.58
Na 36.465   19.305   10.725
Na 38.61   17.16   8.58
Na 40.755   19.305   10.725
Na 0   21.45   8.58
Na 2.145   23.595   10.725
Na 4.29   21.45   8.58
Na 6.435   23.595   10.725
Na 8.58   21.45   8.58
Na 10.725   23.595   10.725
Na 12.87   21.45   8.58
Na 17.16   21.45   8.58
Na 19.305   23.595   10.725
Na 21.45   21.45   8.58
Na 25.74   21.45   8.58
Na 30.03   21.45   8.58
Na 32.175   23.595   10.725
Na 34.32   21.45   8.58
Na 36.465   23.595   10.725
Na 38.61   21.45   8.58
Na 40.755   23.595   10.725
Na 0   25.74   8.58
Na 2.145   27.885   10.725
Na 6.435   27.885   10.725
Na 8.58   25.74   8.58
Na 10.725   27.885   10.725
Na 19.305   27.885   10.725
Na 21.45   25.74   8.58
Na 23.595   27.885   10.725
Na 27.885   27.885   10.725
Na 30.03   25.74   8.58
Na 32.175   27.885   10.725
Na 34.32   25.74   8.58
Na 36.465   27.885   10.725
Na 38.61   25.74   8.58
Na 40.755   27.885   10.725
Na 0   30.03   8.58
Na 2.145   32.175   10.725
Na 4.29   30.03   8.58
Na 6.435   32.175   10.725
Na 8.58   30.03   8.58
Na 10.725   32.175   10.725
Na 12.87   30.03   8.58
Na 15.015   32.175   10.725
Na 17.16   30.03   8.58
Na 19.305   32.175   10.725
Na 21.45   30.03   8.58
Na 23.595   32.175   10.725
Na 25.74   30.03   8.58
Na 27.885   32.175   10.725
Na 30.03   30.03   8.58
Na 32.175   32.175   10.725
Na 34.32   30.03   8.58
Na 38.61   30.03   8.58
Na 0   34.32   8.58
Na 2.145   36.465   10.725
Na 4.29   34.32   8.58
Na 8.58   34.32   8.58
Na 10.725   36.465   10.725
Na 12.87   34.32   8.58
Na 17.16   34.32   8.58
Na 19.305   36.465   10.725
Na 21.45   34.32   8.58
Na 23.595   36.465   10.725
Na 25.74   34.32   8.58
Na 27.885   36.465   10.725
Na 30.03   34.32   8.58
Na 32.175   36.465   10.725
Na 34.32   34.32   8.58
Na 38.61   34.32   8.58
Na 40.755   36.465   10.725
Na 0   38.61   8.58
Na 2.145   40.755   10.725
Na 4.29   38.61   8.58
Na 8.58   38.61   8.58
Na 10.725   40.755   10.725
Na 12.87   38.61   8.58
Na 15.015   40.755   10.725
Na 17.16   38.61   8.58
Na 23.595   40.755   10.725
Na 27.885   40.755   10.725
Na 38.61   38.61   8.58
Na 40.755   40.755   10.725
Na 0   0   12.87
Na 2.145   2.145   15.015
Na 4.29   0   12.87
Na 6.435   2.145   15.015
Na 8.58   0   12.87
Na 10.725   2.145   15.015
Na 15.015   2.145   15.015
Na 19.305   2.145   15.015
Na 25.74   0   12.87
Na 30.03   0   12.87
Na 32.175   2.145   15.015
Na 36.465   2.145   15.015
Na 0   4.29   12.87
Na 2.145   6.435   15.015
Na 4.29   4.29   12.87
Na 6.435   6.435   15.015
Na 8.58   4.29   12.87
Na 10.725   6.435   15.015
Na 12.87   4.29   12.87
Na 17.16   4.29   12.87
Na 21.45   4.29   12.87
Na 23.595   6.435   15.015
Na 25.74   4.29   12.87
Na 27.885   6.435   15.015
Na 30.03   4.29   12.87
Na 36.465   6.435   15.015
Na 38.61   4.29   12.87
Na 40.755   6.435   15.015
Na 2.145   10.725   15.015
Na 6.435   10.725   15.015
Na 8.58   8.58   12.87
Na 10.725   10.725   15.015
Na 12.87   8.58   12.87
Na 15.015   10.725   15.015
Na 21.45   8.58   12.87
Na 23.595   10.725   15.015
Na 25.74   8.58   12.87
Na 27.885   10.725   15.015
Na 32.175   10.725   15.015
Na 34.32   8.58   12.87
Na 36.465   10.725   15.015
Na 38.61   8.58   12.87
Na 2.145   15.015   15.015
Na 6.435   15.015   15.015
Na 8.58   12.87   12.87
Na 10.725   15.015   15.015
Na 12.87   12.87   12.87
Na 15.015   15.015   15.015
Na 19.305   15.015   15.015
Na 23.595   15.015   15.015
Na 25.74   12.87   12.87
Na 27.885   15.015   15.015
Na 30.03   12.87   12.87
Na 34.32   12.87   12.87
Na 36.465   15.015   15.015
Na 38.61   12.87   12.87
Na 40.755   15.015   15.015
Na 0   17.16   12.87
Na 2.145   19.305   15.015
Na 4.29   17.16   12.87
Na 10.725   19.305   15.015
Na 15.015   19.305   15.015
Na 17.16   17.16   12.87
Na 19.305   19.305   15.015
Na 21.45   17.16   12.87
Na 27.885   19.305   15.015
Na 32.175   19.305   15.015
Na 34.32   17.16   12.87
Na 36.465   19.305   15.015
Na 38.61   17.16   12.87
Na 40.755   19.305   15.015
Na 2.145   23.595   15.015
Na 10.725   23.595   15.015
Na 12.87   21.45   12.87
Na 15.015   23.595   15.015
Na 19.305   23.595   15.015
Na 21.45   21.45   12.87
Na 23.595   23.595   15.015
Na 25.74   21.45   12.87
Na 27.885   23.595   15.015
Na 32.175   23.595   15.015
Na 34.32   21.45   12.87
Na 36.465   23.595   15.015
Na 38.61   21.45   12.87
Na 40.755   23.595   15.015
Na 0   25.74   12.87
Na 2.145   27.885   15.015
Na 4.29   25.74   12.87
Na 6.435   27.885   15.015
Na 8.58   25.74   12.87
Na 12.87   25.74   12.87
Na 15.015   27.885   15.015
Na 17.16   25.74   12.87
Na 19.305   27.885   15.015
Na 21.45   25.74   12.87
Na 23.595   27.885   15.015
Na 25.74   25.74   12.87
Na 30.03   25.74   12.87
Na 32.175   27.885   15.015
Na 34.32   25.74   12.87
Na 38.61   25.74   12.87
Na 40.755   27.885   15.015
Na 0   30.03   12.87
Na 2.145   32.175   15.015
Na 4.29   30.03   12.87
Na 6.435   32.175   15.015
Na 8.58   30.03   12.87
Na 10.725   32.175   15.015
Na 17.16   30.03   12.87
Na 19.305   32.175   15.015
Na 21.45   30.03   12.87
Na 23.595   32.175   15.015
Na 25.74   30.03   12.87
Na 27.885   32.175   15.015
Na 32.175   32.175   15.015
Na 34.32   30.03   12.87
Na 36.465   32.175   15.015
Na 38.61   30.03   12.87
Na 40.755   32.175   15.015
Na 2.145   36.465   15.015
Na 4.29   34.32   12.87
Na 6.435   36.465   15.015
Na 8.58   34.32   12.87
Na 10.725   36.465   15.015
Na 12.87   34.32   12.87
Na 15.015   36.465   15.015
Na 17.16   34.32   12.87
Na 19.305   36.465   15.015
Na 21.45   34.32   12.87
Na 25.74   34.32   12.87
Na 27.885   36.465   15.015
Na 30.03   34.32   12.87
Na 34.32   34.32   12.87
Na 36.465   36.465   15.015
Na 38.61   34.32   12.87
Na 40.755   36.465   15.015
Na 0   38.61   12.87
Na 2.145   40.755   15.015
Na 8.58   38.61   12.87
Na 10.725   40.755   15.015
Na 12.87   38.61   12.87
Na 15.015   40.755   15.015
Na 19.305   40.755   15.015
Na 21.45   38.61   12.87
Na 23.595   40.755   15.015
Na 25.74   38.61   12.87
Na 27.885   40.755   15.015
Na 30.03   38.61   12.87
Na 32.175   40.755   15.015
Na 34.32   38.61   12.87
Na 38.61   38.61   12.87
Na 40.755   40.755   15.015
Na 0   0   17.16
Na 4.29   0   17.16
Na 6.435   2.145   19.305
Na 8.58   0   17.16
Na 10.725   2.145   19.305
Na 12.87   0   17.16
Na 15.015   2.145   19.305
Na 17.16   0   17.16
Na 21.45   0   17.16
Na 25.74   0   17.16
Na 27.885   2.145   19.305
Na 32.175   2.145   19.305
Na 34.32   0   17.16
Na 36.465   2.145   19.305
Na 38.61   0   17.16
Na 0   4.29   17.16
Na 2.145   6.435   19.305
Na 4.29   4.29   17.16
Na 6.435   6.435   19.305
Na 8.58   4.29   17.16
Na 15.015   6.435   19.305
Na 17.16   4.29   17.16
Na 23.595   6.435   19.305
Na 25.74   4.29   17.16
Na 27.885   6.435   19.305
Na 30.03   4.29   17.16
Na 32.175   6.435   19.305
Na 34.32   4.29   17.16
Na 36.465   6.435   19.305
Na 38.61   4.29   17.16
Na 2.145   10.725   19.305
Na 4.29   8.58   17.16
Na 10.725   10.725   19.305
Na 15.015   10.725   19.305
Na 17.16   8.58   17.16
Na 19.305   10.725   19.305
Na 21.45   8.58   17.16
Na 23.595   10.725   19.305
Na 25.74   8.58   17.16
Na 27.885   10.725   19.305
Na 30.03   8.58   17.16
Na 32.175   10.725   19.305
Na 34.32   8.58   17.16
Na 36.465   10.725   19.305
Na 38.61   8.58   17.16
Na 40.755   10.725   19.305
Na 0   12.87   17.16
Na 2.145   15.015   19.305
Na 4.29   12.87   17.16
Na 6.435   15.015   19.305
Na 8.58   12.87   17.16
Na 10.725   15.015   19.305
Na 12.87   12.87   17.16
Na 15.015   15.015   19.305
Na 19.305   15.015   19.305
Na 21.45   12.87   17.16
Na 25.74   12.87   17.16
Na 32.175   15.015   19.305
Na 38.61   12.87   17.16
Na 40.755   15.015   19.305
Na 0   17.16   17.16
Na 2.145   19.305   19.305
Na 4.29   17.16   17.16
Na 6.435   19.305   19.305
Na 8.58   17.16   17.16
Na 10.725   19.305   19.305
Na 12.87   17.16   17.16
Na 19.305   19.305   19.305
Na 21.45   17.16   17.16
Na 23.595   19.305   19.305
Na 25.74   17.16   17.16
Na 27.885   19.305   19.305
Na 30.03   17.16   17.16
Na 34.32   17.16   17.16
Na 36.465   19.305   19.305
Na 38.61   17.16   17.16
Na 40.755   19.305   19.305
Na 0   21.45   17.16
Na 2.145   23.595   19.305
Na 4.29   21.45   17.16
Na 6.435   23.595   19.305
Na 8.58   21.45   17.16
Na 10.725   23.595   19.305
Na 12.87   21.45   17.16
Na 17.16   21.45   17.16
Na 23.595   23.595   19.305
Na 30.03   21.45   17.16
Na 34.32   21.45   17.16
Na 36.465   23.595   19.305
Na 40.755   23.595   19.305
Na 0   25.74   17.16
Na 2.145   27.885   19.305
Na 4.29   25.74   17.16
Na 6.435   27.885   19.305
Na 8.58   25.74   17.16
Na 12.87   25.74   17.16
Na 17.16   25.74   17.16
Na 19.305   27.885   19.305
Na 21.45   25.74   17.16
Na 25.74   25.74   17.16
Na 27.885   27.885   19.305
Na 30.03   25.74   17.16
Na 36.465   27.885   19.305
Na 38.61   25.74   17.16
Na 40.755   27.885   19.305
Na 0   30.03   17.16
Na 6.435   32.175   19.305
Na 8.58   30.03   17.16
Na 10.725   32.175   19.305
Na 15.015   32.175   19.305
Na 17.16   30.03   17.16
Na 19.305   32.175   19.305
Na 21.45   30.03   17.16
Na 23.595   32.175   19.305
Na 25.74   30.03   17.16
Na 30.03   30.03   17.16
Na 36.465   32.175   19.305
Na 38.61   30.03   17.16
Na 40.755   32.175   19.305
Na 0   34.32   17.16
Na 2.145   36.465   19.305
Na 6.435   36.465   19.305
Na 10.725   36.465   19.305
Na 21.45   34.32   17.16
Na 23.595   36.465   19.305
Na 25.74   34.32   17.16
Na 34.32   34.32   17.16
Na 36.465   36.465   19.305
Na 38.61   34.32   17.16
Na 0   38.61   17.16
Na 2.145   40.755   19.305
Na 4.29   38.61   17.16
Na 10.725   40.755   19.305
Na 12.87   38.61   17.16
Na 17.16   38.61   17.16
Na 19.305   40.755   19.305
Na 21.45   38.61   17.16
Na 30.03   38.61   17.16
Na 32.175   40.755   19.305
Na 34.32   38.61   17.16
Na 36.465   40.755   19.305
Na 38.61   38.61   17.16
Na 40.755   40.755   19.305
V 15.1559   35.9629   19.0131
V 18.8819   11.2413   14.2886
V 36.6288   41.8434   12.6024
V 16.8089   3.76473   4.56925
V 20.9545   3.7633   4.56049
V 14.7188   11.2008   2.08662
V 28.9047   27.4859   4.28678
V 20.9989   25.0242   0.0262405
V 27.7509   15.4445   11.0499
V 15.1695   24.4501   9.81777
V 23.5264   19.699   15.4637
V 32.2109   32.1294   2.31318
V 20.8038   14.3525   3.64881
V 32.453   40.0437   9.60939
V 41.4221   10.2714   14.6422
V 33.9453   17.3163   8.51884
V 8.04379   39.1419   17.0815
V 21.1269   4.43288   17.4767
V 27.3583   23.0684   19.2402
V 8.25692   0.142879   8.89669
V 19.2973   36.0999   19.4912
V 30.1466   34.3784   17.5207
V 14.7533   32.4768   2.0342
V 10.1239   40.9255   6.02513
V 23.6839   36.9266   6.85559
V 32.1493   14.8843   15.0066
V 12.6479   28.8608   19.4382
V 32.4016   32.064   19.1367
V 32.5717   27.7437   18.9035
V 2.64629   15.4795   6.40752
V 27.7526   11.1903   2.60355
V 12.5872   21.835   4.58842
V 19.1143   14.6007   6.81491
V 12.2227   25.4908   7.82054
V 23.5162   31.9263   1.96956
V 1.797   7.00056   10.9471
V 17.0573   8.03634   12.9809
V 19.477   6.34063   14.9439
V 12.522   9.14556   8.80213
V 14.9362   14.7663   6.25956
V 6.61096   21.8642   14.063
V 14.4883   6.40815   15.5243
V 23.3261   2.05229   15.1922
V 6.35622   14.7663   10.5496
V 8.51988   17.2374   12.8397
V 15.187   19.2106   19.2339
V 31.5724   19.486   11.2642
V 11.0326   6.3399   18.9577
V 36.1716   27.8476   15.0862
V 23.6795   27.8449   19.5411
V 8.95519   12.4173   8.40532
V 18.9517   41.1027   11.318
V 25.8532   39.0361   17.6384
V 34.2331   21.3116   4.57503
V 36.3969   27.8647   6.45775
V 40.5293   5.644   6.77486
V 38.5107   13.114   8.64076
V 30.4815   8.15062   12.9754
V 36.3969   14.9947   19.3277
V 14.5244   32.1558   15.3691
V 32.3692   23.8114   19.3714
V 27.5649   31.7357   19.6744
V 5.85798   6.87484   1.95976
V 12.3628   34.8246   4.44188
V 33.8876   4.56747   12.9629
V 40.6541   2.80319   9.89973
V 40.6339   1.97791   14.7014
V 40.8445   6.47705   19.1542
V 6.56475   2.11254   6.36771
V 36.5553   36.5477   10.7281
V 40.9258   40.8527   2.07531
V 15.2151   36.5906   10.8393
V 30.194   21.3352   4.61483
V 32.0936   14.7748   6.12998
V 34.3329   8.53194   8.84999
V 29.852   29.9844   13.1519
V 4.67496   38.9347   12.5611
V 23.8418   36.5404   15.1953
V 34.2036   12.79   17.0943
V 17.188   29.9595   21.4399
V 38.6703   21.3575   17.101
V 28.019   1.95274   2.19113
V 15.3257   6.3152   10.2379
V 23.9883   14.339   2.68413
V 26.0377   4.29107   8.49137
V 6.17469   18.6072   2.79465
V 1.89899   23.4219   6.28002
V 19.2461   27.6682   6.64213
V 9.28265   37.8349   3.99318
V 16.9854   21.7256   12.7567
V 25.8815   25.2233   9.03592
V 14.7464   28.1745   10.9203
V 25.7692   25.7625   4.16074
V 23.3953   32.3078   6.39826
V 11.2409   28.3048   14.9955
V 28.0265   23.0783   11.1809
V 40.8076   32.3336   10.8674
V 6.59105   10.4295   19.1316
V 28.0411   14.7195   19.1316
V 6.50046   18.7984   15.1009
V 19.6481   23.1587   18.9965
V 27.6853   28.0178   14.9783
V 32.1517   19.3749   19.1349
V 4.30389   25.8196   8.30945
V 15.2692   23.8322   6.30591
V 17.1761   17.1849   17.0681
V 23.3271   23.6257   10.9327
V 21.4661   8.60488   21.3581
V 21.4661   21.4749   21.3581
V 23.86   14.9516   19.2702
V 29.8331   12.8524   17.1483
V 12.7822   21.513   21.3242
V 15.3982   23.6588   19.3306
V 14.9261   40.5774   6.08265
V 32.249   6.62052   15.183
V 25.3023   42.4444   20.6232
V 17.2465   0.466968   0.262076
V 36.4301   23.6539   6.49089
V 12.5896   34.7638   0.230004
V 0.0240827   38.6067   4.17824
V 30.3534   42.6524   4.73465
V 32.4725   19.0806   6.36703
V 42.8293   13.1362   12.7814
V 30.3248   16.8896   13.2224
V 42.6603   21.3645   13.0562
V 21.0345   38.5263   8.92465
V 23.5243   2.41116   19.2164
V 2.16908   32.1717   6.32324
V 2.0347   2.06602   19.4417
V 38.858   34.3823   4.4568
V 38.858   12.9323   4.4568
V 2.56358   32.2975   19.0631
V 36.4871   32.1213   10.6471
V 31.9935   36.3448   15.1486
V 25.4101   17.4149   13.2206
V 29.8485   42.7798   17.2936
V 10.568   1.94598   6.48271
V 29.8485   12.7498   4.42362
V 10.6579   28.0606   6.19382
V 11.3801   11.3825   5.85348
V 32.1971   6.38131   10.6471
V 26.1477   13.0627   4.85158
V 29.9682   38.7939   8.29694
V 27.8179   2.32059   14.7738
V 8.58127   8.19614   17.0698
V 25.9286   21.4186   17.0429
V 42.6537   34.4482   4.19169
V 12.8355   17.3792   12.7311
V 21.7393   12.7437   8.49215
V 12.9288   17.1735   8.59222
V 21.4155   21.6692   17.0211
V 40.8908   36.3665   19.5722
V 32.0072   2.00033   6.39643
V 25.8442   38.3903   4.21038
V 38.5421   17.102   21.2065
V 13.0058   4.19153   0.267188
V 38.4422   4.14533   4.25143
V 42.8941   12.8954   4.56589
V 4.45968   12.734   12.9447
V 6.39128   36.2553   10.5248
V 42.7322   8.43533   17.1214
V 8.64211   34.1362   17.3579
V 19.1372   2.00033   19.2664
V 15.1727   40.9469   19.4782
V 42.8321   8.52205   8.33652
V 32.6297   40.3359   6.41988
V 4.43712   17.5435   9.03027
V 4.23587   34.2469   16.9665
V 6.33416   32.2197   2.25546
V 0.291209   34.1174   21.1757
V 10.3667   23.2886   6.52729
V 36.5165   40.5917   1.87878
V 35.9255   40.1323   9.89044
V 27.1364   27.9467   7.10217
V 21.588   13.2616   12.6156
V 42.8857   34.4138   12.7517
V 4.37534   29.9227   17.0493
V 3.77406   21.3945   12.7488
V 27.7641   36.3786   19.568
V 17.2652   3.7889   8.41145
V 17.0304   12.8725   8.66748
V 27.9424   40.6574   19.3241
V 16.9364   38.501   4.43055
V 12.7004   0.143354   12.799
V 17.3694   13.1345   21.4259
V 10.5924   6.49463   2.15772
V 25.7732   38.5479   8.54126
V 17.0297   12.8911   17.1664
V 17.2191   26.0237   8.95298
V 4.3737   8.81093   13.1303
V 10.7067   2.21117   10.7439
V 14.6692   2.01532   6.64993
V 35.179   30.3782   17.5466
V 10.626   10.775   10.988
V 8.91933   17.9015   3.91073
V 17.1633   38.4134   13.1412
V 32.0149   36.5005   19.4971
V 19.0164   6.68963   19.4316
V 12.5933   12.847   21.2814
V 21.5298   42.8737   12.8594
V 42.6233   21.427   4.12142
V 3.8889   8.57393   4.3784
V 25.5607   21.1468   0.194016
V 4.15769   16.9154   4.49089
V 0.684371   3.5506   7.67759
V 21.6206   17.444   4.01437
V 6.41671   2.21117   10.7439
V 40.4198   2.09724   6.36074
V 12.8481   8.76541   17.1797
V 27.3438   28.4909   1.57001
V 12.9335   4.00623   17.3376
V 30.1463   30.2514   4.36205
V 30.1491   21.7527   13.1809
V 12.9787   13.1346   4.15495
V 40.9549   2.23706   19.2445
V 19.4586   2.1368   2.18042
V 8.35793   0.104128   3.85872
V 2.36289   1.88357   6.19598
V 23.1334   40.5581   19.2656
V 6.48871   40.8644   10.6566
V 4.12466   8.99192   21.434
V 37.966   4.22089   8.56812
V 33.6912   42.3182   12.2644
V 10.5252   36.2311   6.78331
V 6.18727   40.6801   19.381
V 19.3999   23.359   2.56379
V 36.4398   40.5666   15.5191
V 15.4907   28.0202   19.337
V 16.9265   42.82   13.065
V 6.19297   41.0275   14.9628
V 16.6156   12.883   12.7919
V 19.3793   1.94567   6.50866
V 12.7645   30.3934   12.6029
V 9.12777   20.9955   12.589
V 21.3967   34.272   21.3839
V 14.9614   2.35346   2.31679
V 34.2502   25.5119   17.2133
V 17.0902   34.0919   17.2133
V 42.6974   8.29171   12.6683
V 38.3874   25.8509   21.3646
V 38.6572   21.3302   0.106969
V 17.2187   34.0708   0.146019
V 25.4587   30.1325   21.328
V 12.7936   30.3442   0.50354
V 12.2887   34.4789   17.1738
V 10.2465   27.4036   19.2295
V 1.98723   2.23268   1.96527
V 39.4019   0.237316   12.2602
